10039_Carbonyl sulfide
                    3D
 Schrodinger Suite 2021-3.
  3  2  0  0  1  0            999 V2000
    0.0639    0.5294    0.0000 C   0  0  0  0  0  0
    0.0841    1.7102    0.0000 O   0  0  0  0  0  0
   -0.0661   -1.0543    0.0000 S   0  0  0  0  0  0
  1  2  2  0  0  0
  1  3  2  0  0  0
M  END
>  <s_lp_Force_Field> (1)
S-OPLS

>  <r_lp_Energy> (1)
0

>  <b_lp_Chiralities_Consistent> (1)
1

>  <r_epik_Ionization_Penalty> (1)
  0.0000

>  <r_epik_Ionization_Penalty_Charging> (1)
  0.0000

>  <r_epik_Ionization_Penalty_Neutral> (1)
  0.0000

>  <r_epik_State_Penalty> (1)
  0.0000

>  <r_epik_Charging_Adjusted_Penalty> (1)
0

>  <i_epik_Tot_Q> (1)
0

>  <i_epik_Tot_abs_Q> (1)
0

>  <i_m_Spin_multiplicity> (1)
1

>  <s_j_Task> (1)
Single Point

>  <s_j_QM_Method> (1)
DFT(b3lyp-d3)

>  <s_j_QM_Basis> (1)
cc-pvtz(-f)

>  <i_j_Number_of_canonical_orbitals> (1)
73

>  <r_j_Gas_Phase_Energy> (1)
-511.609733306152

>  <r_j_Final_Energy> (1)
-511.609733306152

>  <r_j_HOMO> (1)
-0.308807993912961

>  <r_j_LUMO> (1)
-0.0485870202038604

>  <r_j_Polarizability> (1)
28.8182619323094

>  <r_j_QM_Dipole_(debye)> (1)
0.770673169715331

>  <r_j_QM_Dipole_X_(debye)> (1)
-0.0105471484770548

>  <r_j_QM_Dipole_Y_(debye)> (1)
-0.770600994145529

>  <r_j_QM_Dipole_Z_(debye)> (1)
0

>  <r_j_Lowest_Frequency_(cm-1)> (1)
578.045700999884

>  <r_j_Highest_Frequency_(cm-1)> (1)
1934.30647772277

>  <r_j_2nd_Lowest_Frequency_(cm-1)> (1)
815.855480477503

>  <i_j_Num_Negative_Frequencies> (1)
0

>  <r_j_Zero_Point_Energy_(kcal/mol)> (1)
4.75791168561234

>  <r_j_Entropy_(cal/mol/K)_298.15K_1.00E+00atm> (1)
38.8793384446142

>  <r_j_Enthalpy_(kcal/mol)_298.15K_1.00E+00atm> (1)
1.63632428486143

>  <r_j_Free_Energy_(kcal/mol)_298.15K_1.00E+00atm> (1)
-9.95555047240028

>  <r_j_Internal_Energy_(kcal/mol)_298.15K_1.00E+00atm> (1)
1.04383869603415

>  <r_j_Heat_Capacity_(cal/mol/K)_298.15K_1.00E+00atm> (1)
4.69983189394542

>  <r_j_ln(Q)_298.15K_1.00E+00atm> (1)
16.8030255252379

>  <r_j_Total_Internal_Energy_(au)_298.15K_1.00E+00atm> (1)
-511.600487628343

>  <r_j_Total_Enthalpy_(au)_298.15K_1.00E+00atm> (1)
-511.599543442451

>  <r_j_Total_Free_Energy_(au)_298.15K_1.00E+00atm> (1)
-511.618016270849

>  <r_lp_tautomer_probability> (1)
1

$$$$
