10041_2,2-dimethylpropane
                    3D
 Schrodinger Suite 2021-3.
 17 16  0  0  1  0            999 V2000
    0.5288   -0.3451    1.5659 C   0  0  0  0  0  0
    0.2391    0.2654    0.1829 C   0  0  0  0  0  0
    1.2611    1.3785   -0.1109 C   0  0  0  0  0  0
    0.3477   -0.8290   -0.8944 C   0  0  0  0  0  0
   -1.1816    0.8579    0.1711 C   0  0  0  0  0  0
    1.5358   -0.7760    1.6036 H   0  0  0  0  0  0
   -0.1858   -1.1416    1.8029 H   0  0  0  0  0  0
    0.4590    0.4134    2.3540 H   0  0  0  0  0  0
    1.2064    2.1728    0.6423 H   0  0  0  0  0  0
    1.0780    1.8330   -1.0912 H   0  0  0  0  0  0
    2.2840    0.9851   -0.1096 H   0  0  0  0  0  0
    1.3513   -1.2693   -0.9095 H   0  0  0  0  0  0
    0.1452   -0.4218   -1.8916 H   0  0  0  0  0  0
   -0.3700   -1.6366   -0.7098 H   0  0  0  0  0  0
   -1.9323    0.0861    0.3757 H   0  0  0  0  0  0
   -1.4152    1.3029   -0.8029 H   0  0  0  0  0  0
   -1.2888    1.6399    0.9314 H   0  0  0  0  0  0
  1  2  1  0  0  0
  1  6  1  0  0  0
  1  7  1  0  0  0
  1  8  1  0  0  0
  2  3  1  0  0  0
  2  4  1  0  0  0
  2  5  1  0  0  0
  3  9  1  0  0  0
  3 10  1  0  0  0
  3 11  1  0  0  0
  4 12  1  0  0  0
  4 13  1  0  0  0
  4 14  1  0  0  0
  5 15  1  0  0  0
  5 16  1  0  0  0
  5 17  1  0  0  0
M  END
>  <i_m_Spin_multiplicity> (1)
1

>  <s_j_Task> (1)
Single Point

>  <s_j_QM_Method> (1)
DFT(b3lyp-d3)

>  <s_j_QM_Basis> (1)
cc-pvtz(-f)

>  <i_j_Number_of_canonical_orbitals> (1)
223

>  <i_j_Geometry_convergence_category> (1)
3

>  <r_j_Gas_Phase_Energy> (1)
-197.856644731458

>  <r_j_Final_Energy> (1)
-197.856644731458

>  <r_j_HOMO> (1)
-0.321391054716159

>  <r_j_LUMO> (1)
0.0250095293340246

>  <r_j_Polarizability> (1)
63.4271396381304

>  <r_j_QM_Dipole_(debye)> (1)
0.00094683007672246

>  <r_j_QM_Dipole_X_(debye)> (1)
0.000800744950418531

>  <r_j_QM_Dipole_Y_(debye)> (1)
0.000344124498018494

>  <r_j_QM_Dipole_Z_(debye)> (1)
0.000369963577165379

>  <r_j_Lowest_Frequency_(cm-1)> (1)
285.690326373575

>  <r_j_Highest_Frequency_(cm-1)> (1)
3044.39482036794

>  <r_j_2nd_Lowest_Frequency_(cm-1)> (1)
341.44193775154

>  <i_j_Num_Negative_Frequencies> (1)
0

>  <r_j_Zero_Point_Energy_(kcal/mol)> (1)
99.8926255782229

>  <r_j_Entropy_(cal/mol/K)_298.15K_1.00E+00atm> (1)
75.7119114316416

>  <r_j_Enthalpy_(kcal/mol)_298.15K_1.00E+00atm> (1)
4.63280559230834

>  <r_j_Free_Energy_(kcal/mol)_298.15K_1.00E+00atm> (1)
-17.9407008010356

>  <r_j_Internal_Energy_(kcal/mol)_298.15K_1.00E+00atm> (1)
4.04032000348106

>  <r_j_Heat_Capacity_(cal/mol/K)_298.15K_1.00E+00atm> (1)
25.0851723800311

>  <r_j_ln(Q)_298.15K_1.00E+00atm> (1)
30.2804002989274

>  <r_j_Total_Internal_Energy_(au)_298.15K_1.00E+00atm> (1)
-197.691017038889

>  <r_j_Total_Enthalpy_(au)_298.15K_1.00E+00atm> (1)
-197.690072852997

>  <r_j_Total_Free_Energy_(au)_298.15K_1.00E+00atm> (1)
-197.726046025471

>  <r_lp_tautomer_probability> (1)
1

>  <r_epik_Ionization_Penalty> (1)
  0.0000

>  <r_epik_Ionization_Penalty_Charging> (1)
  0.0000

>  <r_epik_Ionization_Penalty_Neutral> (1)
  0.0000

>  <r_epik_State_Penalty> (1)
  0.0000

>  <r_epik_Charging_Adjusted_Penalty> (1)
0

>  <i_epik_Tot_Q> (1)
0

>  <i_epik_Tot_abs_Q> (1)
0

>  <s_lp_Force_Field> (1)
S-OPLS

>  <r_lp_Energy> (1)
1.47346

>  <b_lp_Chiralities_Consistent> (1)
1

$$$$
