1032_Propionic acid
                    3D
 Schrodinger Suite 2021-3.
 10  9  0  0  1  0            999 V2000
   -0.0248    0.0476    0.1266 C   0  0  0  0  0  0
    1.4719   -0.0476   -0.1722 C   0  0  0  0  0  0
    2.0610   -1.5046   -0.0214 C   0  0  0  0  0  0
    3.1313   -1.7064   -0.6463 O   0  0  0  0  0  0
    1.4125   -2.2779    0.7314 O   0  5  0  0  0  0
   -0.3917    1.0843    0.1844 H   0  0  0  0  0  0
   -0.2233   -0.4677    1.0707 H   0  0  0  0  0  0
   -0.6111   -0.4717   -0.6425 H   0  0  0  0  0  0
    1.7097    0.3213   -1.1784 H   0  0  0  0  0  0
    2.0284    0.5988    0.5252 H   0  0  0  0  0  0
  1  2  1  0  0  0
  1  6  1  0  0  0
  1  7  1  0  0  0
  1  8  1  0  0  0
  2  3  1  0  0  0
  2  9  1  0  0  0
  2 10  1  0  0  0
  3  4  2  0  0  0
  3  5  1  0  0  0
M  END
>  <i_m_Spin_multiplicity> (1)
1

>  <s_j_Task> (1)
Single Point

>  <s_j_QM_Method> (1)
DFT(b3lyp-d3)

>  <s_j_QM_Basis> (1)
cc-pvtz(-f)

>  <i_j_Number_of_canonical_orbitals> (1)
160

>  <i_j_Geometry_convergence_category> (1)
1

>  <r_j_Gas_Phase_Energy> (1)
-267.935168755771

>  <r_j_Final_Energy> (1)
-267.935168755771

>  <r_j_HOMO> (1)
-0.0312244015570066

>  <r_j_LUMO> (1)
0.185844489586294

>  <r_j_Polarizability> (1)
47.6486608730122

>  <r_j_QM_Dipole_(debye)> (1)
4.26108348300136

>  <r_j_QM_Dipole_X_(debye)> (1)
-2.42106614264831

>  <r_j_QM_Dipole_Y_(debye)> (1)
3.50475602547216

>  <r_j_QM_Dipole_Z_(debye)> (1)
-0.109345251134476

>  <r_j_Lowest_Frequency_(cm-1)> (1)
107.183536410495

>  <r_j_Highest_Frequency_(cm-1)> (1)
3052.23313836918

>  <r_j_2nd_Lowest_Frequency_(cm-1)> (1)
264.840876671826

>  <i_j_Num_Negative_Frequencies> (1)
0

>  <r_j_Zero_Point_Energy_(kcal/mol)> (1)
47.9591928914856

>  <r_j_Entropy_(cal/mol/K)_298.15K_1.00E+00atm> (1)
72.8414751957989

>  <r_j_Enthalpy_(kcal/mol)_298.15K_1.00E+00atm> (1)
3.89820450998817

>  <r_j_Free_Energy_(kcal/mol)_298.15K_1.00E+00atm> (1)
-17.8194813196393

>  <r_j_Internal_Energy_(kcal/mol)_298.15K_1.00E+00atm> (1)
3.30571892116089

>  <r_j_Heat_Capacity_(cal/mol/K)_298.15K_1.00E+00atm> (1)
17.6048827949623

>  <r_j_ln(Q)_298.15K_1.00E+00atm> (1)
30.0758054806193

>  <r_j_Total_Internal_Energy_(au)_298.15K_1.00E+00atm> (1)
-267.853472918077

>  <r_j_Total_Enthalpy_(au)_298.15K_1.00E+00atm> (1)
-267.852528732184

>  <r_j_Total_Free_Energy_(au)_298.15K_1.00E+00atm> (1)
-267.887138067769

>  <r_epik_Ionization_Penalty> (1)
  0.0040

>  <r_epik_Ionization_Penalty_Charging> (1)
  0.0040

>  <r_epik_Ionization_Penalty_Neutral> (1)
  0.0000

>  <r_epik_State_Penalty> (1)
  0.0029

>  <r_epik_Charging_Adjusted_Penalty> (1)
0.00685024

>  <i_epik_Tot_Q> (1)
-1

>  <i_epik_Tot_abs_Q> (1)
1

>  <s_lp_Force_Field> (1)
S-OPLS

>  <r_lp_Energy> (1)
4.7226

>  <b_lp_Chiralities_Consistent> (1)
1

$$$$
