10336_2-Methyl-2-butenal
                    3D
 Schrodinger Suite 2021-3.
 14 13  0  0  1  0            999 V2000
   -0.0039    0.0612    0.0000 C   0  0  0  0  0  0
    1.4928   -0.0287    0.0000 C   0  0  0  0  0  0
    2.1872   -1.1826    0.0000 C   0  0  0  0  0  0
    1.5324   -2.5414    0.0000 C   0  0  0  0  0  0
    3.6721   -1.1095    0.0000 C   0  0  0  0  0  0
    4.3276   -0.0832    0.0000 O   0  0  0  0  0  0
   -0.3518    1.0964    0.0000 H   0  0  0  0  0  0
   -0.4298   -0.4415    0.8784 H   0  0  0  0  0  0
   -0.4298   -0.4414   -0.8784 H   0  0  0  0  0  0
    2.0719    0.8926    0.0000 H   0  0  0  0  0  0
    2.2758   -3.3451    0.0000 H   0  0  0  0  0  0
    0.8944   -2.6801   -0.8809 H   0  0  0  0  0  0
    0.8944   -2.6801    0.8809 H   0  0  0  0  0  0
    4.1812   -2.1011    0.0000 H   0  0  0  0  0  0
  1  2  1  0  0  0
  1  7  1  0  0  0
  1  8  1  0  0  0
  1  9  1  0  0  0
  2  3  2  0  0  0
  2 10  1  0  0  0
  3  4  1  0  0  0
  3  5  1  0  0  0
  4 11  1  0  0  0
  4 12  1  0  0  0
  4 13  1  0  0  0
  5  6  2  0  0  0
  5 14  1  0  0  0
M  END
>  <i_m_Spin_multiplicity> (1)
1

>  <s_j_Task> (1)
Single Point

>  <s_j_QM_Method> (1)
DFT(b3lyp-d3)

>  <s_j_QM_Basis> (1)
cc-pvtz(-f)

>  <i_j_Number_of_canonical_orbitals> (1)
208

>  <i_j_Geometry_convergence_category> (1)
0

>  <r_j_Gas_Phase_Energy> (1)
-270.650703056431

>  <r_j_Final_Energy> (1)
-270.650703056431

>  <r_j_HOMO> (1)
-0.262639276271248

>  <r_j_LUMO> (1)
-0.0738088330267184

>  <r_j_Polarizability> (1)
63.7144737014963

>  <r_j_QM_Dipole_(debye)> (1)
3.37610530210062

>  <r_j_QM_Dipole_X_(debye)> (1)
-2.97996554644555

>  <r_j_QM_Dipole_Y_(debye)> (1)
-1.58678680059893

>  <r_j_QM_Dipole_Z_(debye)> (1)
-4.81083635208691e-05

>  <r_j_Lowest_Frequency_(cm-1)> (1)
175.822346954267

>  <r_j_Highest_Frequency_(cm-1)> (1)
3119.3018875869

>  <r_j_2nd_Lowest_Frequency_(cm-1)> (1)
179.329012772133

>  <i_j_Num_Negative_Frequencies> (1)
0

>  <r_j_Zero_Point_Energy_(kcal/mol)> (1)
73.2800946297354

>  <r_j_Entropy_(cal/mol/K)_298.15K_1.00E+00atm> (1)
80.6230217670173

>  <r_j_Enthalpy_(kcal/mol)_298.15K_1.00E+00atm> (1)
4.97362699190831

>  <r_j_Free_Energy_(kcal/mol)_298.15K_1.00E+00atm> (1)
-19.0641269479279

>  <r_j_Internal_Energy_(kcal/mol)_298.15K_1.00E+00atm> (1)
4.38114140308103

>  <r_j_Heat_Capacity_(cal/mol/K)_298.15K_1.00E+00atm> (1)
24.3576387765499

>  <r_j_ln(Q)_298.15K_1.00E+00atm> (1)
32.1765243027466

>  <r_j_Total_Internal_Energy_(au)_298.15K_1.00E+00atm> (1)
-270.526941998239

>  <r_j_Total_Enthalpy_(au)_298.15K_1.00E+00atm> (1)
-270.525997812347

>  <r_j_Total_Free_Energy_(au)_298.15K_1.00E+00atm> (1)
-270.564304411831

>  <r_lp_tautomer_probability> (1)
1

>  <r_epik_Ionization_Penalty> (1)
  0.0000

>  <r_epik_Ionization_Penalty_Charging> (1)
  0.0000

>  <r_epik_Ionization_Penalty_Neutral> (1)
  0.0000

>  <r_epik_State_Penalty> (1)
  0.0000

>  <r_epik_Charging_Adjusted_Penalty> (1)
0

>  <i_epik_Tot_Q> (1)
0

>  <i_epik_Tot_abs_Q> (1)
0

>  <s_lp_Force_Field> (1)
S-OPLS

>  <r_lp_Energy> (1)
4.587192

>  <b_lp_Chiralities_Consistent> (1)
1

$$$$
