10351_3-Furaldehyde
                    3D
 Schrodinger Suite 2021-3.
 11 11  0  0  1  0            999 V2000
   -0.8634    1.1425    0.0000 C   0  0  0  0  0  0
   -2.1238    0.6463    0.0000 C   0  0  0  0  0  0
   -2.1023   -0.7294    0.0000 O   0  0  0  0  0  0
   -0.8033   -1.1015    0.0000 C   0  0  0  0  0  0
    0.0130   -0.0006    0.0000 C   0  0  0  0  0  0
    1.4750   -0.0017    0.0000 C   0  0  0  0  0  0
    2.1555    1.0085    0.0000 O   0  0  0  0  0  0
   -0.5577    2.1776    0.0000 H   0  0  0  0  0  0
   -3.1048    1.0946    0.0000 H   0  0  0  0  0  0
   -0.6063   -2.1631    0.0000 H   0  0  0  0  0  0
    1.9435   -1.0107    0.0000 H   0  0  0  0  0  0
  1  5  1  0  0  0
  1  2  2  0  0  0
  1  8  1  0  0  0
  2  3  1  0  0  0
  2  9  1  0  0  0
  3  4  1  0  0  0
  4  5  2  0  0  0
  4 10  1  0  0  0
  5  6  1  0  0  0
  6  7  2  0  0  0
  6 11  1  0  0  0
M  END
>  <i_m_Spin_multiplicity> (1)
1

>  <s_j_Task> (1)
Single Point

>  <s_j_QM_Method> (1)
DFT(b3lyp-d3)

>  <s_j_QM_Basis> (1)
cc-pvtz(-f)

>  <i_j_Number_of_canonical_orbitals> (1)
194

>  <i_j_Geometry_convergence_category> (1)
0

>  <r_j_Gas_Phase_Energy> (1)
-343.468109529608

>  <r_j_Final_Energy> (1)
-343.468109529608

>  <r_j_HOMO> (1)
-0.25983442390745

>  <r_j_LUMO> (1)
-0.0626240122500042

>  <r_j_Polarizability> (1)
59.12756641785

>  <r_j_QM_Dipole_(debye)> (1)
2.84782964156269

>  <r_j_QM_Dipole_X_(debye)> (1)
-2.35214811928573

>  <r_j_QM_Dipole_Y_(debye)> (1)
-1.60546967960084

>  <r_j_QM_Dipole_Z_(debye)> (1)
-1.36403934079846e-05

>  <r_j_Lowest_Frequency_(cm-1)> (1)
169.980105721489

>  <r_j_Highest_Frequency_(cm-1)> (1)
3242.66841293225

>  <r_j_2nd_Lowest_Frequency_(cm-1)> (1)
214.109399482058

>  <i_j_Num_Negative_Frequencies> (1)
0

>  <r_j_Zero_Point_Energy_(kcal/mol)> (1)
49.5714653145478

>  <r_j_Entropy_(cal/mol/K)_298.15K_1.00E+00atm> (1)
75.2467910907968

>  <r_j_Enthalpy_(kcal/mol)_298.15K_1.00E+00atm> (1)
4.02030039362846

>  <r_j_Free_Energy_(kcal/mol)_298.15K_1.00E+00atm> (1)
-18.4145303700926

>  <r_j_Internal_Energy_(kcal/mol)_298.15K_1.00E+00atm> (1)
3.42781480480119

>  <r_j_Heat_Capacity_(cal/mol/K)_298.15K_1.00E+00atm> (1)
19.8098256942672

>  <r_j_ln(Q)_298.15K_1.00E+00atm> (1)
31.0801321033665

>  <r_j_Total_Internal_Energy_(au)_298.15K_1.00E+00atm> (1)
-343.383649800069

>  <r_j_Total_Enthalpy_(au)_298.15K_1.00E+00atm> (1)
-343.382705614176

>  <r_j_Total_Free_Energy_(au)_298.15K_1.00E+00atm> (1)
-343.418457792966

>  <r_lp_tautomer_probability> (1)
1

>  <r_epik_Ionization_Penalty> (1)
  0.0000

>  <r_epik_Ionization_Penalty_Charging> (1)
  0.0000

>  <r_epik_Ionization_Penalty_Neutral> (1)
  0.0000

>  <r_epik_State_Penalty> (1)
  0.0000

>  <r_epik_Charging_Adjusted_Penalty> (1)
0

>  <i_epik_Tot_Q> (1)
0

>  <i_epik_Tot_abs_Q> (1)
0

>  <s_lp_Force_Field> (1)
S-OPLS

>  <r_lp_Energy> (1)
2.981446

>  <b_lp_Chiralities_Consistent> (1)
1

$$$$
