10459_Hexadecanedioic acid
                    3D
 Schrodinger Suite 2021-3.
 48 47  0  0  1  0            999 V2000
   -0.2115   -0.2089    0.2470 C   0  0  0  0  0  0
    1.3202   -0.2786    0.1921 C   0  0  0  0  0  0
    1.8951   -1.7008    0.1751 C   0  0  0  0  0  0
    3.4279   -1.7289    0.1118 C   0  0  0  0  0  0
    4.0387   -3.1348    0.0551 C   0  0  0  0  0  0
    5.5738   -3.1254    0.0176 C   0  0  0  0  0  0
    6.2291   -4.5140   -0.0381 C   0  0  0  0  0  0
    5.9621   -5.3220   -1.3105 C   0  0  0  0  0  0
    6.9531   -6.5388   -1.5167 C   0  0  0  0  0  0
    6.5033   -7.4692   -2.2287 O   0  0  0  0  0  0
    8.0846   -6.4173   -0.9771 O   0  5  0  0  0  0
   -0.7486    1.2279    0.2101 C   0  0  0  0  0  0
   -2.2786    1.3397    0.2243 C   0  0  0  0  0  0
   -2.7793    2.7864    0.1176 C   0  0  0  0  0  0
   -4.3050    2.9291    0.0786 C   0  0  0  0  0  0
   -4.7721    4.3787   -0.1027 C   0  0  0  0  0  0
   -6.2965    4.5207   -0.1464 C   0  0  0  0  0  0
   -7.0369    4.2442    1.2195 C   0  0  0  0  0  0
   -6.2985    4.0347    2.2198 O   0  0  0  0  0  0
   -8.2887    4.2829    1.1457 O   0  5  0  0  0  0
   -0.6312   -0.7749   -0.5975 H   0  0  0  0  0  0
   -0.5703   -0.7132    1.1558 H   0  0  0  0  0  0
    1.6701    0.2578   -0.7024 H   0  0  0  0  0  0
    1.7370    0.2698    1.0499 H   0  0  0  0  0  0
    1.5555   -2.2448    1.0686 H   0  0  0  0  0  0
    1.4849   -2.2491   -0.6852 H   0  0  0  0  0  0
    3.7598   -1.1589   -0.7690 H   0  0  0  0  0  0
    3.8321   -1.1915    0.9831 H   0  0  0  0  0  0
    3.7023   -3.7158    0.9271 H   0  0  0  0  0  0
    3.6559   -3.6653   -0.8262 H   0  0  0  0  0  0
    5.9000   -2.5407   -0.8569 H   0  0  0  0  0  0
    5.9380   -2.5754    0.9008 H   0  0  0  0  0  0
    7.3181   -4.4239    0.0431 H   0  0  0  0  0  0
    5.9135   -5.0966    0.8413 H   0  0  0  0  0  0
    4.9346   -5.7034   -1.3542 H   0  0  0  0  0  0
    6.0803   -4.6618   -2.1864 H   0  0  0  0  0  0
   -0.3363    1.7903    1.0610 H   0  0  0  0  0  0
   -0.3629    1.7272   -0.6915 H   0  0  0  0  0  0
   -2.6910    0.7514   -0.6090 H   0  0  0  0  0  0
   -2.6747    0.8816    1.1416 H   0  0  0  0  0  0
   -2.3845    3.3679    0.9638 H   0  0  0  0  0  0
   -2.3459    3.2424   -0.7872 H   0  0  0  0  0  0
   -4.7032    2.3106   -0.7420 H   0  0  0  0  0  0
   -4.7518    2.5641    1.0095 H   0  0  0  0  0  0
   -4.4056    4.9641    0.7498 H   0  0  0  0  0  0
   -4.3128    4.7955   -1.0161 H   0  0  0  0  0  0
   -6.5719    5.5386   -0.4594 H   0  0  0  0  0  0
   -6.7277    3.8539   -0.9077 H   0  0  0  0  0  0
  1  2  1  0  0  0
  1 12  1  0  0  0
  1 21  1  0  0  0
  1 22  1  0  0  0
  2  3  1  0  0  0
  2 23  1  0  0  0
  2 24  1  0  0  0
  3  4  1  0  0  0
  3 25  1  0  0  0
  3 26  1  0  0  0
  4  5  1  0  0  0
  4 27  1  0  0  0
  4 28  1  0  0  0
  5  6  1  0  0  0
  5 29  1  0  0  0
  5 30  1  0  0  0
  6  7  1  0  0  0
  6 31  1  0  0  0
  6 32  1  0  0  0
  7  8  1  0  0  0
  7 33  1  0  0  0
  7 34  1  0  0  0
  8  9  1  0  0  0
  8 35  1  0  0  0
  8 36  1  0  0  0
  9 10  2  0  0  0
  9 11  1  0  0  0
 12 13  1  0  0  0
 12 37  1  0  0  0
 12 38  1  0  0  0
 13 14  1  0  0  0
 13 39  1  0  0  0
 13 40  1  0  0  0
 14 15  1  0  0  0
 14 41  1  0  0  0
 14 42  1  0  0  0
 15 16  1  0  0  0
 15 43  1  0  0  0
 15 44  1  0  0  0
 16 17  1  0  0  0
 16 45  1  0  0  0
 16 46  1  0  0  0
 17 18  1  0  0  0
 17 47  1  0  0  0
 17 48  1  0  0  0
 18 19  2  0  0  0
 18 20  1  0  0  0
M  END
>  <i_m_Spin_multiplicity> (1)
1

>  <s_j_Task> (1)
Single Point

>  <s_j_QM_Method> (1)
DFT(b3lyp-d3)

>  <s_j_QM_Basis> (1)
cc-pvtz(-f)

>  <i_j_Number_of_canonical_orbitals> (1)
708

>  <i_j_Geometry_convergence_category> (1)
3

>  <r_j_Gas_Phase_Energy> (1)
-927.933640815425

>  <r_j_Final_Energy> (1)
-927.933640815425

>  <r_j_HOMO> (1)
0.0155146119528848

>  <r_j_LUMO> (1)
0.152790008382317

>  <r_j_Polarizability> (1)
219.083300304961

>  <r_j_QM_Dipole_(debye)> (1)
7.554477932883

>  <r_j_QM_Dipole_X_(debye)> (1)
2.45574265389604

>  <r_j_QM_Dipole_Y_(debye)> (1)
7.13935604633532

>  <r_j_QM_Dipole_Z_(debye)> (1)
-0.262792884049806

>  <r_j_Lowest_Frequency_(cm-1)> (1)
25.0021312217364

>  <r_j_Highest_Frequency_(cm-1)> (1)
3035.561182776

>  <r_j_2nd_Lowest_Frequency_(cm-1)> (1)
38.4990034377564

>  <i_j_Num_Negative_Frequencies> (1)
0

>  <r_j_Zero_Point_Energy_(kcal/mol)> (1)
263.307323788026

>  <r_j_Entropy_(cal/mol/K)_298.15K_1.00E+00atm> (1)
154.380155890353

>  <r_j_Enthalpy_(kcal/mol)_298.15K_1.00E+00atm> (1)
14.3974676327531

>  <r_j_Free_Energy_(kcal/mol)_298.15K_1.00E+00atm> (1)
-31.6309758459556

>  <r_j_Internal_Energy_(kcal/mol)_298.15K_1.00E+00atm> (1)
13.8049820439258

>  <r_j_Heat_Capacity_(cal/mol/K)_298.15K_1.00E+00atm> (1)
82.5286953810917

>  <r_j_ln(Q)_298.15K_1.00E+00atm> (1)
53.3869117535226

>  <r_j_Total_Internal_Energy_(au)_298.15K_1.00E+00atm> (1)
-927.492034243604

>  <r_j_Total_Enthalpy_(au)_298.15K_1.00E+00atm> (1)
-927.491090057712

>  <r_j_Total_Free_Energy_(au)_298.15K_1.00E+00atm> (1)
-927.564441051887

>  <r_epik_Ionization_Penalty> (1)
  0.0097

>  <r_epik_Ionization_Penalty_Charging> (1)
  0.0097

>  <r_epik_Ionization_Penalty_Neutral> (1)
  0.0000

>  <r_epik_State_Penalty> (1)
  0.0074

>  <r_epik_Charging_Adjusted_Penalty> (1)
0.0170680524587756

>  <i_epik_Tot_Q> (1)
-2

>  <i_epik_Tot_abs_Q> (1)
2

>  <s_lp_Force_Field> (1)
S-OPLS

>  <r_lp_Energy> (1)
10.511654

>  <b_lp_Chiralities_Consistent> (1)
1

$$$$
