10465_Heptadecanoic acid
                    3D
 Schrodinger Suite 2021-3.
 52 51  0  0  1  0            999 V2000
   -7.0308    5.7531    0.0341 C   0  0  0  0  0  0
   -6.3924    4.3644   -0.0634 C   0  0  0  0  0  0
   -4.8649    4.3914    0.0690 C   0  0  0  0  0  0
   -4.2244    3.0022   -0.0223 C   0  0  0  0  0  0
   -2.6963    3.0151    0.0996 C   0  0  0  0  0  0
   -2.0759    1.6160    0.0172 C   0  0  0  0  0  0
   -0.5465    1.6050    0.1203 C   0  0  0  0  0  0
    0.0473    0.1935    0.0500 C   0  0  0  0  0  0
    1.5778    0.1538    0.1260 C   0  0  0  0  0  0
    2.1433   -1.2700    0.0709 C   0  0  0  0  0  0
    3.6741   -1.3381    0.1106 C   0  0  0  0  0  0
    4.2157   -2.7721    0.0735 C   0  0  0  0  0  0
    5.7458   -2.8613    0.0659 C   0  0  0  0  0  0
    6.2723   -4.3026    0.0456 C   0  0  0  0  0  0
    7.8035   -4.4183    0.0144 C   0  0  0  0  0  0
    8.4775   -3.8602   -1.2409 C   0  0  0  0  0  0
    9.9791   -4.3288   -1.4189 C   0  0  0  0  0  0
   10.6924   -3.5553   -2.1017 O   0  0  0  0  0  0
   10.2679   -5.4326   -0.8873 O   0  5  0  0  0  0
   -8.1205    5.7046   -0.0655 H   0  0  0  0  0  0
   -6.6528    6.4165   -0.7525 H   0  0  0  0  0  0
   -6.8043    6.2238    0.9978 H   0  0  0  0  0  0
   -6.8105    3.7118    0.7154 H   0  0  0  0  0  0
   -6.6629    3.9017   -1.0226 H   0  0  0  0  0  0
   -4.4442    5.0400   -0.7131 H   0  0  0  0  0  0
   -4.5914    4.8573    1.0268 H   0  0  0  0  0  0
   -4.6448    2.3578    0.7634 H   0  0  0  0  0  0
   -4.5067    2.5353   -0.9770 H   0  0  0  0  0  0
   -2.2728    3.6499   -0.6920 H   0  0  0  0  0  0
   -2.4096    3.4862    1.0508 H   0  0  0  0  0  0
   -2.4969    0.9871    0.8151 H   0  0  0  0  0  0
   -2.3769    1.1425   -0.9285 H   0  0  0  0  0  0
   -0.1222    2.2209   -0.6856 H   0  0  0  0  0  0
   -0.2395    2.0843    1.0610 H   0  0  0  0  0  0
   -0.3716   -0.4146    0.8651 H   0  0  0  0  0  0
   -0.2794   -0.2892   -0.8825 H   0  0  0  0  0  0
    1.9990    0.7466   -0.6987 H   0  0  0  0  0  0
    1.9114    0.6443    1.0519 H   0  0  0  0  0  0
    1.7320   -1.8534    0.9078 H   0  0  0  0  0  0
    1.7849   -1.7648   -0.8437 H   0  0  0  0  0  0
    4.0855   -0.7715   -0.7370 H   0  0  0  0  0  0
    4.0395   -0.8329    1.0166 H   0  0  0  0  0  0
    3.8193   -3.3289    0.9362 H   0  0  0  0  0  0
    3.8214   -3.2821   -0.8181 H   0  0  0  0  0  0
    6.1373   -2.3205   -0.8049 H   0  0  0  0  0  0
    6.1474   -2.3423    0.9492 H   0  0  0  0  0  0
    5.8702   -4.8334    0.9242 H   0  0  0  0  0  0
    5.8560   -4.8161   -0.8352 H   0  0  0  0  0  0
    8.2203   -3.9257    0.9064 H   0  0  0  0  0  0
    8.1096   -5.4676    0.0863 H   0  0  0  0  0  0
    7.9242   -4.2076   -2.1299 H   0  0  0  0  0  0
    8.4539   -2.7641   -1.2752 H   0  0  0  0  0  0
  1  2  1  0  0  0
  1 20  1  0  0  0
  1 21  1  0  0  0
  1 22  1  0  0  0
  2  3  1  0  0  0
  2 23  1  0  0  0
  2 24  1  0  0  0
  3  4  1  0  0  0
  3 25  1  0  0  0
  3 26  1  0  0  0
  4  5  1  0  0  0
  4 27  1  0  0  0
  4 28  1  0  0  0
  5  6  1  0  0  0
  5 29  1  0  0  0
  5 30  1  0  0  0
  6  7  1  0  0  0
  6 31  1  0  0  0
  6 32  1  0  0  0
  7  8  1  0  0  0
  7 33  1  0  0  0
  7 34  1  0  0  0
  8  9  1  0  0  0
  8 35  1  0  0  0
  8 36  1  0  0  0
  9 10  1  0  0  0
  9 37  1  0  0  0
  9 38  1  0  0  0
 10 11  1  0  0  0
 10 39  1  0  0  0
 10 40  1  0  0  0
 11 12  1  0  0  0
 11 41  1  0  0  0
 11 42  1  0  0  0
 12 13  1  0  0  0
 12 43  1  0  0  0
 12 44  1  0  0  0
 13 14  1  0  0  0
 13 45  1  0  0  0
 13 46  1  0  0  0
 14 15  1  0  0  0
 14 47  1  0  0  0
 14 48  1  0  0  0
 15 16  1  0  0  0
 15 49  1  0  0  0
 15 50  1  0  0  0
 16 17  1  0  0  0
 16 51  1  0  0  0
 16 52  1  0  0  0
 17 18  2  0  0  0
 17 19  1  0  0  0
M  END
>  <s_lp_Force_Field> (1)
S-OPLS

>  <r_lp_Energy> (1)
11.336753

>  <b_lp_Chiralities_Consistent> (1)
1

>  <r_epik_Ionization_Penalty> (1)
  0.0049

>  <r_epik_Ionization_Penalty_Charging> (1)
  0.0049

>  <r_epik_Ionization_Penalty_Neutral> (1)
  0.0000

>  <r_epik_State_Penalty> (1)
  0.0035

>  <r_epik_Charging_Adjusted_Penalty> (1)
0.00839777765143097

>  <i_epik_Tot_Q> (1)
-1

>  <i_epik_Tot_abs_Q> (1)
1

>  <i_m_Spin_multiplicity> (1)
1

>  <s_j_Task> (1)
Single Point

>  <s_j_QM_Method> (1)
DFT(b3lyp-d3)

>  <s_j_QM_Basis> (1)
6-31g**

>  <i_j_Number_of_canonical_orbitals> (1)
450

>  <i_j_Geometry_convergence_category> (1)
1

>  <r_j_Gas_Phase_Energy> (1)
-818.299331130856

>  <r_j_Final_Energy> (1)
-818.299331130856

>  <r_j_HOMO> (1)
-0.00590331416391821

>  <r_j_LUMO> (1)
0.125501645676035

>  <r_j_Polarizability> (1)
196.3351324303

>  <r_j_QM_Dipole_(debye)> (1)
40.9599139883063

>  <r_j_QM_Dipole_X_(debye)> (1)
-36.4393532235249

>  <r_j_QM_Dipole_Y_(debye)> (1)
18.0021297370989

>  <r_j_QM_Dipole_Z_(debye)> (1)
5.08049362850685

>  <r_j_Lowest_Frequency_(cm-1)> (1)
-6.15555805231365

>  <r_j_Highest_Frequency_(cm-1)> (1)
3104.27480317143

>  <r_j_2nd_Lowest_Frequency_(cm-1)> (1)
20.9534309283988

>  <i_j_Num_Negative_Frequencies> (1)
1

>  <r_j_Zero_Point_Energy_(kcal/mol)> (1)
300.049398818019

>  <r_j_Entropy_(cal/mol/K)_298.15K_1.00E+00atm> (1)
155.998747004517

>  <r_j_Enthalpy_(kcal/mol)_298.15K_1.00E+00atm> (1)
14.567194519954

>  <r_j_Free_Energy_(kcal/mol)_298.15K_1.00E+00atm> (1)
-31.9438318994428

>  <r_j_Internal_Energy_(kcal/mol)_298.15K_1.00E+00atm> (1)
13.9747089311267

>  <r_j_Heat_Capacity_(cal/mol/K)_298.15K_1.00E+00atm> (1)
82.7526771986173

>  <r_j_ln(Q)_298.15K_1.00E+00atm> (1)
53.9149516913488

>  <r_j_Total_Internal_Energy_(au)_298.15K_1.00E+00atm> (1)
-817.798901858052

>  <r_j_Total_Enthalpy_(au)_298.15K_1.00E+00atm> (1)
-817.79795767216

>  <r_j_Total_Free_Energy_(au)_298.15K_1.00E+00atm> (1)
-817.872077711208

$$$$
