10469_Hexacosanoic acid
                    3D
 Schrodinger Suite 2021-3.
 79 78  0  0  1  0            999 V2000
   -8.9276   11.2807    1.1665 C   0  0  0  0  0  0
   -9.3205   10.1164    0.2524 C   0  0  0  0  0  0
   -8.6170    8.8024    0.6135 C   0  0  0  0  0  0
   -9.0110    7.6392   -0.3061 C   0  0  0  0  0  0
   -8.3925    6.2843    0.0702 C   0  0  0  0  0  0
   -6.8634    6.2228   -0.0484 C   0  0  0  0  0  0
   -6.3023    4.8155    0.1865 C   0  0  0  0  0  0
   -4.7758    4.7314    0.0708 C   0  0  0  0  0  0
   -4.2376    3.3063    0.2420 C   0  0  0  0  0  0
   -2.7129    3.2000    0.1215 C   0  0  0  0  0  0
   -2.2018    1.7593    0.2369 C   0  0  0  0  0  0
   -0.6786    1.6286    0.1227 C   0  0  0  0  0  0
   -0.1961    0.1753    0.1976 C   0  0  0  0  0  0
    1.3293    0.0299    0.1164 C   0  0  0  0  0  0
    1.8235   -1.4253    0.0720 C   0  0  0  0  0  0
    1.4896   -2.2464    1.3242 C   0  0  0  0  0  0
    2.0628   -3.6683    1.2976 C   0  0  0  0  0  0
    1.7005   -4.4801    2.5462 C   0  0  0  0  0  0
    2.2785   -5.9014    2.5490 C   0  0  0  0  0  0
    1.8639   -6.7439    3.7668 C   0  0  0  0  0  0
    2.3758   -6.2113    5.1116 C   0  0  0  0  0  0
    1.9893   -7.0811    6.3138 C   0  0  0  0  0  0
    2.4803   -6.5172    7.6535 C   0  0  0  0  0  0
    2.0694   -7.3481    8.8743 C   0  0  0  0  0  0
    2.5513   -6.7755   10.2065 C   0  0  0  0  0  0
    2.1530   -7.6311   11.4723 C   0  0  0  0  0  0
    2.4613   -7.1053   12.5693 O   0  0  0  0  0  0
    1.5879   -8.7294   11.2315 O   0  5  0  0  0  0
   -9.4436   12.2054    0.8868 H   0  0  0  0  0  0
   -7.8494   11.4727    1.1189 H   0  0  0  0  0  0
   -9.1767   11.0625    2.2114 H   0  0  0  0  0  0
  -10.4083    9.9671    0.2934 H   0  0  0  0  0  0
   -9.0899   10.3736   -0.7908 H   0  0  0  0  0  0
   -7.5306    8.9578    0.5783 H   0  0  0  0  0  0
   -8.8521    8.5378    1.6550 H   0  0  0  0  0  0
  -10.1055    7.5431   -0.3020 H   0  0  0  0  0  0
   -8.7333    7.8881   -1.3408 H   0  0  0  0  0  0
   -8.6868    6.0218    1.0966 H   0  0  0  0  0  0
   -8.8260    5.5082   -0.5755 H   0  0  0  0  0  0
   -6.5639    6.5702   -1.0483 H   0  0  0  0  0  0
   -6.4022    6.9183    0.6650 H   0  0  0  0  0  0
   -6.6115    4.4609    1.1802 H   0  0  0  0  0  0
   -6.7574    4.1217   -0.5353 H   0  0  0  0  0  0
   -4.4635    5.1215   -0.9089 H   0  0  0  0  0  0
   -4.3148    5.3911    0.8199 H   0  0  0  0  0  0
   -4.5526    2.9128    1.2190 H   0  0  0  0  0  0
   -4.7048    2.6536   -0.5097 H   0  0  0  0  0  0
   -2.3931    3.6230   -0.8420 H   0  0  0  0  0  0
   -2.2403    3.8206    0.8963 H   0  0  0  0  0  0
   -2.5303    1.3330    1.1955 H   0  0  0  0  0  0
   -2.6762    1.1460   -0.5430 H   0  0  0  0  0  0
   -0.3426    2.0776   -0.8234 H   0  0  0  0  0  0
   -0.2014    2.2139    0.9219 H   0  0  0  0  0  0
   -0.5629   -0.2722    1.1300 H   0  0  0  0  0  0
   -0.6580   -0.4018   -0.6172 H   0  0  0  0  0  0
    1.6889    0.5573   -0.7783 H   0  0  0  0  0  0
    1.7865    0.5426    0.9751 H   0  0  0  0  0  0
    1.3995   -1.9247   -0.8117 H   0  0  0  0  0  0
    2.9125   -1.4270   -0.0732 H   0  0  0  0  0  0
    1.8672   -1.7200    2.2130 H   0  0  0  0  0  0
    0.4009   -2.3082    1.4505 H   0  0  0  0  0  0
    1.6999   -4.1911    0.4003 H   0  0  0  0  0  0
    3.1569   -3.6195    1.1975 H   0  0  0  0  0  0
    2.0480   -3.9373    3.4340 H   0  0  0  0  0  0
    0.6057   -4.5369    2.6369 H   0  0  0  0  0  0
    1.9633   -6.4134    1.6284 H   0  0  0  0  0  0
    3.3761   -5.8438    2.5044 H   0  0  0  0  0  0
    0.7666   -6.8147    3.7995 H   0  0  0  0  0  0
    2.2275   -7.7716    3.6303 H   0  0  0  0  0  0
    3.4712   -6.1155    5.0672 H   0  0  0  0  0  0
    1.9926   -5.1959    5.2798 H   0  0  0  0  0  0
    0.8949   -7.1885    6.3458 H   0  0  0  0  0  0
    2.3864   -8.0975    6.1762 H   0  0  0  0  0  0
    3.5773   -6.4252    7.6228 H   0  0  0  0  0  0
    2.1013   -5.4893    7.7664 H   0  0  0  0  0  0
    0.9764   -7.4484    8.9073 H   0  0  0  0  0  0
    2.4417   -8.3758    8.7819 H   0  0  0  0  0  0
    3.6480   -6.6738   10.2021 H   0  0  0  0  0  0
    2.1654   -5.7553   10.3519 H   0  0  0  0  0  0
  1  2  1  0  0  0
  1 29  1  0  0  0
  1 30  1  0  0  0
  1 31  1  0  0  0
  2  3  1  0  0  0
  2 32  1  0  0  0
  2 33  1  0  0  0
  3  4  1  0  0  0
  3 34  1  0  0  0
  3 35  1  0  0  0
  4  5  1  0  0  0
  4 36  1  0  0  0
  4 37  1  0  0  0
  5  6  1  0  0  0
  5 38  1  0  0  0
  5 39  1  0  0  0
  6  7  1  0  0  0
  6 40  1  0  0  0
  6 41  1  0  0  0
  7  8  1  0  0  0
  7 42  1  0  0  0
  7 43  1  0  0  0
  8  9  1  0  0  0
  8 44  1  0  0  0
  8 45  1  0  0  0
  9 10  1  0  0  0
  9 46  1  0  0  0
  9 47  1  0  0  0
 10 11  1  0  0  0
 10 48  1  0  0  0
 10 49  1  0  0  0
 11 12  1  0  0  0
 11 50  1  0  0  0
 11 51  1  0  0  0
 12 13  1  0  0  0
 12 52  1  0  0  0
 12 53  1  0  0  0
 13 14  1  0  0  0
 13 54  1  0  0  0
 13 55  1  0  0  0
 14 15  1  0  0  0
 14 56  1  0  0  0
 14 57  1  0  0  0
 15 16  1  0  0  0
 15 58  1  0  0  0
 15 59  1  0  0  0
 16 17  1  0  0  0
 16 60  1  0  0  0
 16 61  1  0  0  0
 17 18  1  0  0  0
 17 62  1  0  0  0
 17 63  1  0  0  0
 18 19  1  0  0  0
 18 64  1  0  0  0
 18 65  1  0  0  0
 19 20  1  0  0  0
 19 66  1  0  0  0
 19 67  1  0  0  0
 20 21  1  0  0  0
 20 68  1  0  0  0
 20 69  1  0  0  0
 21 22  1  0  0  0
 21 70  1  0  0  0
 21 71  1  0  0  0
 22 23  1  0  0  0
 22 72  1  0  0  0
 22 73  1  0  0  0
 23 24  1  0  0  0
 23 74  1  0  0  0
 23 75  1  0  0  0
 24 25  1  0  0  0
 24 76  1  0  0  0
 24 77  1  0  0  0
 25 26  1  0  0  0
 25 78  1  0  0  0
 25 79  1  0  0  0
 26 27  2  0  0  0
 26 28  1  0  0  0
M  END
>  <s_lp_Force_Field> (1)
S-OPLS

>  <r_lp_Energy> (1)
17.288783

>  <b_lp_Chiralities_Consistent> (1)
1

>  <r_epik_Ionization_Penalty> (1)
  0.0049

>  <r_epik_Ionization_Penalty_Charging> (1)
  0.0049

>  <r_epik_Ionization_Penalty_Neutral> (1)
  0.0000

>  <r_epik_State_Penalty> (1)
  0.0035

>  <r_epik_Charging_Adjusted_Penalty> (1)
0.00839777765143097

>  <i_epik_Tot_Q> (1)
-1

>  <i_epik_Tot_abs_Q> (1)
1

>  <i_m_Spin_multiplicity> (1)
1

>  <s_j_Task> (1)
Single Point

>  <s_j_QM_Method> (1)
DFT(b3lyp-d3)

>  <s_j_QM_Basis> (1)
6-31g**

>  <i_j_Number_of_canonical_orbitals> (1)
675

>  <i_j_Geometry_convergence_category> (1)
3

>  <r_j_Gas_Phase_Energy> (1)
-1172.17019987152

>  <r_j_Final_Energy> (1)
-1172.17019987152

>  <r_j_HOMO> (1)
-0.00413292424370515

>  <r_j_LUMO> (1)
0.117105326009818

>  <r_j_Polarizability> (1)
295.31817713238

>  <r_j_QM_Dipole_(debye)> (1)
54.9218106885922

>  <r_j_QM_Dipole_X_(debye)> (1)
-16.8430028941109

>  <r_j_QM_Dipole_Y_(debye)> (1)
34.7410422647941

>  <r_j_QM_Dipole_Z_(debye)> (1)
-39.0612151011502

>  <r_j_Lowest_Frequency_(cm-1)> (1)
-3.59866538355612

>  <r_j_Highest_Frequency_(cm-1)> (1)
3105.3827220308

>  <r_j_2nd_Lowest_Frequency_(cm-1)> (1)
10.875120044398

>  <i_j_Num_Negative_Frequencies> (1)
1

>  <r_j_Zero_Point_Energy_(kcal/mol)> (1)
462.084216915301

>  <r_j_Entropy_(cal/mol/K)_298.15K_1.00E+00atm> (1)
207.130706390234

>  <r_j_Enthalpy_(kcal/mol)_298.15K_1.00E+00atm> (1)
21.622137876334

>  <r_j_Free_Energy_(kcal/mol)_298.15K_1.00E+00atm> (1)
-40.1338822339142

>  <r_j_Internal_Energy_(kcal/mol)_298.15K_1.00E+00atm> (1)
21.0296522875067

>  <r_j_Heat_Capacity_(cal/mol/K)_298.15K_1.00E+00atm> (1)
125.769990056197

>  <r_j_ln(Q)_298.15K_1.00E+00atm> (1)
67.7381576712312

>  <r_j_Total_Internal_Energy_(au)_298.15K_1.00E+00atm> (1)
-1171.40030891003

>  <r_j_Total_Enthalpy_(au)_298.15K_1.00E+00atm> (1)
-1171.39936472413

>  <r_j_Total_Free_Energy_(au)_298.15K_1.00E+00atm> (1)
-1171.4977792072

$$$$
