10467_Eicosanoic acid
                    3D
 Schrodinger Suite 2021-3.
 61 60  0  0  1  0            999 V2000
   -1.3261   10.2961   -5.0940 C   0  0  0  0  0  0
   -0.8511    8.8400   -5.0824 C   0  0  0  0  0  0
   -1.1344    8.1235   -3.7565 C   0  0  0  0  0  0
   -0.6586    6.6667   -3.7433 C   0  0  0  0  0  0
   -0.9398    5.9365   -2.4247 C   0  0  0  0  0  0
   -0.4480    4.4848   -2.4287 C   0  0  0  0  0  0
   -0.7210    3.7319   -1.1212 C   0  0  0  0  0  0
   -0.1983    2.2907   -1.1457 C   0  0  0  0  0  0
   -0.4533    1.5186    0.1559 C   0  0  0  0  0  0
    0.0242    0.0567    0.1225 C   0  0  0  0  0  0
    1.5455   -0.1016    0.0032 C   0  0  0  0  0  0
    2.0076   -1.5639   -0.0561 C   0  0  0  0  0  0
    3.5355   -1.7354   -0.1071 C   0  0  0  0  0  0
    4.1987   -1.0927   -1.3321 C   0  0  0  0  0  0
    5.7148   -1.3167   -1.4048 C   0  0  0  0  0  0
    6.3866   -0.6262   -2.6045 C   0  0  0  0  0  0
    6.3302    0.9085   -2.5726 C   0  0  0  0  0  0
    7.0411    1.5839   -3.7516 C   0  0  0  0  0  0
    6.9557    3.1097   -3.7316 C   0  0  0  0  0  0
    7.6698    3.8250   -4.9440 C   0  0  0  0  0  0
    7.5320    5.0724   -4.9617 O   0  0  0  0  0  0
    8.2886    3.0678   -5.7357 O   0  5  0  0  0  0
   -1.1114   10.7826   -6.0515 H   0  0  0  0  0  0
   -0.8318   10.8774   -4.3069 H   0  0  0  0  0  0
   -2.4072   10.3604   -4.9212 H   0  0  0  0  0  0
   -1.3347    8.2890   -5.9008 H   0  0  0  0  0  0
    0.2267    8.8031   -5.2887 H   0  0  0  0  0  0
   -0.6493    8.6730   -2.9367 H   0  0  0  0  0  0
   -2.2141    8.1589   -3.5472 H   0  0  0  0  0  0
   -1.1394    6.1213   -4.5683 H   0  0  0  0  0  0
    0.4199    6.6360   -3.9504 H   0  0  0  0  0  0
   -0.4610    6.4807   -1.5979 H   0  0  0  0  0  0
   -2.0200    5.9580   -2.2172 H   0  0  0  0  0  0
   -0.9203    3.9447   -3.2620 H   0  0  0  0  0  0
    0.6311    4.4706   -2.6347 H   0  0  0  0  0  0
   -0.2550    4.2731   -0.2851 H   0  0  0  0  0  0
   -1.8020    3.7294   -0.9166 H   0  0  0  0  0  0
   -0.6644    1.7494   -1.9822 H   0  0  0  0  0  0
    0.8766    2.3127   -1.3628 H   0  0  0  0  0  0
    0.0379    2.0414    0.9895 H   0  0  0  0  0  0
   -1.5300    1.5406    0.3761 H   0  0  0  0  0  0
   -0.3195   -0.4567    1.0316 H   0  0  0  0  0  0
   -0.4600   -0.4603   -0.7191 H   0  0  0  0  0  0
    1.8952    0.4206   -0.8930 H   0  0  0  0  0  0
    2.0298    0.3996    0.8544 H   0  0  0  0  0  0
    1.6105   -2.1023    0.8166 H   0  0  0  0  0  0
    1.5603   -2.0438   -0.9390 H   0  0  0  0  0  0
    3.9767   -1.3080    0.8054 H   0  0  0  0  0  0
    3.7763   -2.8077   -0.0859 H   0  0  0  0  0  0
    3.7302   -1.4839   -2.2478 H   0  0  0  0  0  0
    4.0013   -0.0162   -1.3286 H   0  0  0  0  0  0
    6.1748   -0.9495   -0.4750 H   0  0  0  0  0  0
    5.9143   -2.3983   -1.4368 H   0  0  0  0  0  0
    7.4387   -0.9386   -2.6532 H   0  0  0  0  0  0
    5.9239   -0.9862   -3.5354 H   0  0  0  0  0  0
    5.2827    1.2418   -2.5570 H   0  0  0  0  0  0
    6.7679    1.2612   -1.6253 H   0  0  0  0  0  0
    8.0978    1.2908   -3.7818 H   0  0  0  0  0  0
    6.6222    1.2209   -4.6992 H   0  0  0  0  0  0
    5.9049    3.4366   -3.7193 H   0  0  0  0  0  0
    7.3943    3.5044   -2.8020 H   0  0  0  0  0  0
  1  2  1  0  0  0
  1 23  1  0  0  0
  1 24  1  0  0  0
  1 25  1  0  0  0
  2  3  1  0  0  0
  2 26  1  0  0  0
  2 27  1  0  0  0
  3  4  1  0  0  0
  3 28  1  0  0  0
  3 29  1  0  0  0
  4  5  1  0  0  0
  4 30  1  0  0  0
  4 31  1  0  0  0
  5  6  1  0  0  0
  5 32  1  0  0  0
  5 33  1  0  0  0
  6  7  1  0  0  0
  6 34  1  0  0  0
  6 35  1  0  0  0
  7  8  1  0  0  0
  7 36  1  0  0  0
  7 37  1  0  0  0
  8  9  1  0  0  0
  8 38  1  0  0  0
  8 39  1  0  0  0
  9 10  1  0  0  0
  9 40  1  0  0  0
  9 41  1  0  0  0
 10 11  1  0  0  0
 10 42  1  0  0  0
 10 43  1  0  0  0
 11 12  1  0  0  0
 11 44  1  0  0  0
 11 45  1  0  0  0
 12 13  1  0  0  0
 12 46  1  0  0  0
 12 47  1  0  0  0
 13 14  1  0  0  0
 13 48  1  0  0  0
 13 49  1  0  0  0
 14 15  1  0  0  0
 14 50  1  0  0  0
 14 51  1  0  0  0
 15 16  1  0  0  0
 15 52  1  0  0  0
 15 53  1  0  0  0
 16 17  1  0  0  0
 16 54  1  0  0  0
 16 55  1  0  0  0
 17 18  1  0  0  0
 17 56  1  0  0  0
 17 57  1  0  0  0
 18 19  1  0  0  0
 18 58  1  0  0  0
 18 59  1  0  0  0
 19 20  1  0  0  0
 19 60  1  0  0  0
 19 61  1  0  0  0
 20 21  2  0  0  0
 20 22  1  0  0  0
M  END
>  <i_m_Spin_multiplicity> (1)
1

>  <s_j_Task> (1)
Single Point

>  <s_j_QM_Method> (1)
DFT(b3lyp-d3)

>  <s_j_QM_Basis> (1)
cc-pvtz(-f)

>  <i_j_Number_of_canonical_orbitals> (1)
851

>  <i_j_Geometry_convergence_category> (1)
3

>  <r_j_Gas_Phase_Energy> (1)
-936.535145638664

>  <r_j_Final_Energy> (1)
-936.535145638664

>  <r_j_HOMO> (1)
0.0150492806442899

>  <r_j_LUMO> (1)
0.0943649700709343

>  <r_j_Polarizability> (1)
256.327649465679

>  <r_j_QM_Dipole_(debye)> (1)
25.9556665186128

>  <r_j_QM_Dipole_X_(debye)> (1)
-22.8007438651601

>  <r_j_QM_Dipole_Y_(debye)> (1)
-4.10836114779284

>  <r_j_QM_Dipole_Z_(debye)> (1)
11.702310553908

>  <r_j_Lowest_Frequency_(cm-1)> (1)
13.1038953260384

>  <r_j_Highest_Frequency_(cm-1)> (1)
3042.6849167533

>  <r_j_2nd_Lowest_Frequency_(cm-1)> (1)
32.0296360104099

>  <i_j_Num_Negative_Frequencies> (1)
0

>  <r_j_Zero_Point_Energy_(kcal/mol)> (1)
351.785342105795

>  <r_j_Entropy_(cal/mol/K)_298.15K_1.00E+00atm> (1)
170.228263917061

>  <r_j_Enthalpy_(kcal/mol)_298.15K_1.00E+00atm> (1)
16.8022825293275

>  <r_j_Free_Energy_(kcal/mol)_298.15K_1.00E+00atm> (1)
-33.9512743575444

>  <r_j_Internal_Energy_(kcal/mol)_298.15K_1.00E+00atm> (1)
16.2097969405002

>  <r_j_Heat_Capacity_(cal/mol/K)_298.15K_1.00E+00atm> (1)
98.2984111303216

>  <r_j_ln(Q)_298.15K_1.00E+00atm> (1)
57.3031226375399

>  <r_j_Total_Internal_Energy_(au)_298.15K_1.00E+00atm> (1)
-935.948708052238

>  <r_j_Total_Enthalpy_(au)_298.15K_1.00E+00atm> (1)
-935.947763866346

>  <r_j_Total_Free_Energy_(au)_298.15K_1.00E+00atm> (1)
-936.02864480809

>  <r_epik_Ionization_Penalty> (1)
  0.0049

>  <r_epik_Ionization_Penalty_Charging> (1)
  0.0049

>  <r_epik_Ionization_Penalty_Neutral> (1)
  0.0000

>  <r_epik_State_Penalty> (1)
  0.0035

>  <r_epik_Charging_Adjusted_Penalty> (1)
0.00839777765143097

>  <i_epik_Tot_Q> (1)
-1

>  <i_epik_Tot_abs_Q> (1)
1

>  <s_lp_Force_Field> (1)
S-OPLS

>  <r_lp_Energy> (1)
13.622458

>  <b_lp_Chiralities_Consistent> (1)
1

$$$$
