10471_Triacontanoic acid
                    3D
 Schrodinger Suite 2021-3.
 91 90  0  0  1  0            999 V2000
  -15.0245    3.9959   -7.1599 C   0  0  0  0  0  0
  -13.5485    3.6840   -6.8954 C   0  0  0  0  0  0
  -13.0476    4.2298   -5.5526 C   0  0  0  0  0  0
  -11.5701    3.9207   -5.2870 C   0  0  0  0  0  0
  -11.0569    4.4579   -3.9458 C   0  0  0  0  0  0
   -9.5770    4.1429   -3.7001 C   0  0  0  0  0  0
   -9.0439    4.6677   -2.3619 C   0  0  0  0  0  0
   -7.5599    4.3500   -2.1436 C   0  0  0  0  0  0
   -7.0120    4.8642   -0.8056 C   0  0  0  0  0  0
   -5.5017    4.6470   -0.6200 C   0  0  0  0  0  0
   -5.0734    3.1763   -0.5213 C   0  0  0  0  0  0
   -3.5587    3.0033   -0.3586 C   0  0  0  0  0  0
   -3.1127    1.5403   -0.2452 C   0  0  0  0  0  0
   -1.5892    1.3809   -0.1854 C   0  0  0  0  0  0
   -1.1174   -0.0725   -0.0538 C   0  0  0  0  0  0
    0.4091   -0.2069   -0.0986 C   0  0  0  0  0  0
    0.9197   -1.6452    0.0510 C   0  0  0  0  0  0
    2.4442   -1.7435   -0.0969 C   0  0  0  0  0  0
    3.0170   -3.1647    0.0085 C   0  0  0  0  0  0
    2.9044   -3.8038    1.4000 C   0  0  0  0  0  0
    3.6564   -5.1386    1.4933 C   0  0  0  0  0  0
    3.5740   -5.8335    2.8608 C   0  0  0  0  0  0
    4.1445   -5.0017    4.0220 C   0  0  0  0  0  0
    4.4373   -5.8165    5.2913 C   0  0  0  0  0  0
    3.2245   -6.5325    5.9005 C   0  0  0  0  0  0
    3.5524   -7.2552    7.2135 C   0  0  0  0  0  0
    2.3839   -8.0632    7.7862 C   0  0  0  0  0  0
    2.7135   -8.7554    9.1140 C   0  0  0  0  0  0
    1.5405   -9.5707    9.6655 C   0  0  0  0  0  0
    0.2889   -8.7198   10.1154 C   0  0  0  0  0  0
   -0.7107   -9.4028   10.4389 O   0  0  0  0  0  0
    0.4396   -7.4671   10.1134 O   0  5  0  0  0  0
  -15.3552    3.5943   -8.1236 H   0  0  0  0  0  0
  -15.2031    5.0774   -7.1700 H   0  0  0  0  0  0
  -15.6640    3.5642   -6.3813 H   0  0  0  0  0  0
  -13.3915    2.5971   -6.9238 H   0  0  0  0  0  0
  -12.9337    4.0997   -7.7057 H   0  0  0  0  0  0
  -13.2046    5.3178   -5.5214 H   0  0  0  0  0  0
  -13.6599    3.8129   -4.7400 H   0  0  0  0  0  0
  -11.4156    2.8327   -5.3235 H   0  0  0  0  0  0
  -10.9607    4.3388   -6.1013 H   0  0  0  0  0  0
  -11.2103    5.5459   -3.9056 H   0  0  0  0  0  0
  -11.6605    4.0367   -3.1291 H   0  0  0  0  0  0
   -9.4262    3.0548   -3.7474 H   0  0  0  0  0  0
   -8.9768    4.5655   -4.5189 H   0  0  0  0  0  0
   -9.1970    5.7553   -2.3087 H   0  0  0  0  0  0
   -9.6345    4.2383   -1.5399 H   0  0  0  0  0  0
   -7.4159    3.2642   -2.2141 H   0  0  0  0  0  0
   -6.9723    4.7872   -2.9644 H   0  0  0  0  0  0
   -7.2297    5.9381   -0.7248 H   0  0  0  0  0  0
   -7.5551    4.3817    0.0197 H   0  0  0  0  0  0
   -4.9661    5.1234   -1.4543 H   0  0  0  0  0  0
   -5.1731    5.1710    0.2877 H   0  0  0  0  0  0
   -5.5920    2.7039    0.3255 H   0  0  0  0  0  0
   -5.3960    2.6304   -1.4174 H   0  0  0  0  0  0
   -3.0517    3.4699   -1.2159 H   0  0  0  0  0  0
   -3.2195    3.5564    0.5290 H   0  0  0  0  0  0
   -3.5668    1.0874    0.6475 H   0  0  0  0  0  0
   -3.5018    0.9736   -1.1034 H   0  0  0  0  0  0
   -1.1487    1.8221   -1.0916 H   0  0  0  0  0  0
   -1.1940    1.9671    0.6566 H   0  0  0  0  0  0
   -1.4993   -0.4988    0.8844 H   0  0  0  0  0  0
   -1.5581   -0.6741   -0.8619 H   0  0  0  0  0  0
    0.7753    0.2087   -1.0491 H   0  0  0  0  0  0
    0.8520    0.4165    0.6916 H   0  0  0  0  0  0
    0.6078   -2.0414    1.0259 H   0  0  0  0  0  0
    0.4418   -2.2848   -0.7054 H   0  0  0  0  0  0
    2.7269   -1.3166   -1.0696 H   0  0  0  0  0  0
    2.9218   -1.1069    0.6621 H   0  0  0  0  0  0
    2.5274   -3.8127   -0.7332 H   0  0  0  0  0  0
    4.0787   -3.1338   -0.2740 H   0  0  0  0  0  0
    3.3028   -3.1032    2.1457 H   0  0  0  0  0  0
    1.8501   -3.9625    1.6633 H   0  0  0  0  0  0
    3.2731   -5.8173    0.7180 H   0  0  0  0  0  0
    4.7144   -4.9637    1.2464 H   0  0  0  0  0  0
    2.5312   -6.0996    3.0750 H   0  0  0  0  0  0
    4.1215   -6.7846    2.8021 H   0  0  0  0  0  0
    5.0739   -4.5163    3.6875 H   0  0  0  0  0  0
    3.4488   -4.1883    4.2683 H   0  0  0  0  0  0
    5.2140   -6.5621    5.0639 H   0  0  0  0  0  0
    4.8735   -5.1491    6.0476 H   0  0  0  0  0  0
    2.4171   -5.8071    6.0758 H   0  0  0  0  0  0
    2.8257   -7.2610    5.1812 H   0  0  0  0  0  0
    4.4165   -7.9191    7.0489 H   0  0  0  0  0  0
    3.8806   -6.5146    7.9577 H   0  0  0  0  0  0
    1.5221   -7.4145    7.9756 H   0  0  0  0  0  0
    2.0720   -8.8169    7.0452 H   0  0  0  0  0  0
    3.6091   -9.3882    8.9858 H   0  0  0  0  0  0
    2.9579   -7.9788    9.8494 H   0  0  0  0  0  0
    1.2001  -10.3118    8.9275 H   0  0  0  0  0  0
    1.8650  -10.1539   10.5396 H   0  0  0  0  0  0
  1  2  1  0  0  0
  1 33  1  0  0  0
  1 34  1  0  0  0
  1 35  1  0  0  0
  2  3  1  0  0  0
  2 36  1  0  0  0
  2 37  1  0  0  0
  3  4  1  0  0  0
  3 38  1  0  0  0
  3 39  1  0  0  0
  4  5  1  0  0  0
  4 40  1  0  0  0
  4 41  1  0  0  0
  5  6  1  0  0  0
  5 42  1  0  0  0
  5 43  1  0  0  0
  6  7  1  0  0  0
  6 44  1  0  0  0
  6 45  1  0  0  0
  7  8  1  0  0  0
  7 46  1  0  0  0
  7 47  1  0  0  0
  8  9  1  0  0  0
  8 48  1  0  0  0
  8 49  1  0  0  0
  9 10  1  0  0  0
  9 50  1  0  0  0
  9 51  1  0  0  0
 10 11  1  0  0  0
 10 52  1  0  0  0
 10 53  1  0  0  0
 11 12  1  0  0  0
 11 54  1  0  0  0
 11 55  1  0  0  0
 12 13  1  0  0  0
 12 56  1  0  0  0
 12 57  1  0  0  0
 13 14  1  0  0  0
 13 58  1  0  0  0
 13 59  1  0  0  0
 14 15  1  0  0  0
 14 60  1  0  0  0
 14 61  1  0  0  0
 15 16  1  0  0  0
 15 62  1  0  0  0
 15 63  1  0  0  0
 16 17  1  0  0  0
 16 64  1  0  0  0
 16 65  1  0  0  0
 17 18  1  0  0  0
 17 66  1  0  0  0
 17 67  1  0  0  0
 18 19  1  0  0  0
 18 68  1  0  0  0
 18 69  1  0  0  0
 19 20  1  0  0  0
 19 70  1  0  0  0
 19 71  1  0  0  0
 20 21  1  0  0  0
 20 72  1  0  0  0
 20 73  1  0  0  0
 21 22  1  0  0  0
 21 74  1  0  0  0
 21 75  1  0  0  0
 22 23  1  0  0  0
 22 76  1  0  0  0
 22 77  1  0  0  0
 23 24  1  0  0  0
 23 78  1  0  0  0
 23 79  1  0  0  0
 24 25  1  0  0  0
 24 80  1  0  0  0
 24 81  1  0  0  0
 25 26  1  0  0  0
 25 82  1  0  0  0
 25 83  1  0  0  0
 26 27  1  0  0  0
 26 84  1  0  0  0
 26 85  1  0  0  0
 27 28  1  0  0  0
 27 86  1  0  0  0
 27 87  1  0  0  0
 28 29  1  0  0  0
 28 88  1  0  0  0
 28 89  1  0  0  0
 29 30  1  0  0  0
 29 90  1  0  0  0
 29 91  1  0  0  0
 30 31  2  0  0  0
 30 32  1  0  0  0
M  END
>  <s_lp_Force_Field> (1)
S-OPLS

>  <r_lp_Energy> (1)
15.849621

>  <b_lp_Chiralities_Consistent> (1)
1

>  <r_epik_Ionization_Penalty> (1)
  0.0049

>  <r_epik_Ionization_Penalty_Charging> (1)
  0.0049

>  <r_epik_Ionization_Penalty_Neutral> (1)
  0.0000

>  <r_epik_State_Penalty> (1)
  0.0035

>  <r_epik_Charging_Adjusted_Penalty> (1)
0.00839777765143097

>  <i_epik_Tot_Q> (1)
-1

>  <i_epik_Tot_abs_Q> (1)
1

>  <i_m_Spin_multiplicity> (1)
1

>  <s_j_Task> (1)
Single Point

>  <s_j_QM_Method> (1)
DFT(b3lyp-d3)

>  <s_j_QM_Basis> (1)
6-31g**

>  <i_j_Number_of_canonical_orbitals> (1)
775

>  <i_j_Geometry_convergence_category> (1)
4

>  <r_j_Gas_Phase_Energy> (1)
-1329.44952491565

>  <r_j_Final_Energy> (1)
-1329.44952491565

>  <r_j_HOMO> (1)
-0.00913146506026574

>  <r_j_LUMO> (1)
0.114871780829123

>  <r_j_Polarizability> (1)
339.609424951458

>  <r_j_QM_Dipole_(debye)> (1)
53.0954823432863

>  <r_j_QM_Dipole_X_(debye)> (1)
-12.8634580545527

>  <r_j_QM_Dipole_Y_(debye)> (1)
32.6128577834371

>  <r_j_QM_Dipole_Z_(debye)> (1)
-39.875596539015

>  <r_j_Lowest_Frequency_(cm-1)> (1)
-15.5616263150295

>  <r_j_Highest_Frequency_(cm-1)> (1)
3105.98278473964

>  <r_j_2nd_Lowest_Frequency_(cm-1)> (1)
6.64950855153289

>  <i_j_Num_Negative_Frequencies> (1)
1

>  <r_j_Zero_Point_Energy_(kcal/mol)> (1)
534.43756070949

>  <r_j_Entropy_(cal/mol/K)_298.15K_1.00E+00atm> (1)
226.478186788255

>  <r_j_Enthalpy_(kcal/mol)_298.15K_1.00E+00atm> (1)
24.5499747200158

>  <r_j_Free_Energy_(kcal/mol)_298.15K_1.00E+00atm> (1)
-42.9744966709024

>  <r_j_Internal_Energy_(kcal/mol)_298.15K_1.00E+00atm> (1)
23.9574891311885

>  <r_j_Heat_Capacity_(cal/mol/K)_298.15K_1.00E+00atm> (1)
144.576754937365

>  <r_j_ln(Q)_298.15K_1.00E+00atm> (1)
72.5325602534285

>  <r_j_Total_Internal_Energy_(au)_298.15K_1.00E+00atm> (1)
-1328.55966575569

>  <r_j_Total_Enthalpy_(au)_298.15K_1.00E+00atm> (1)
-1328.5587215698

>  <r_j_Total_Free_Energy_(au)_298.15K_1.00E+00atm> (1)
-1328.66632866518

$$$$
