1049_Pyridine
                    3D
 Schrodinger Suite 2021-3.
 11 11  0  0  1  0            999 V2000
   -2.6527   -0.0546   -4.6344 C   0  0  0  0  0  0
   -2.6251   -0.6607   -3.3793 C   0  0  0  0  0  0
   -2.5404    0.1545   -2.2491 C   0  0  0  0  0  0
   -2.4837    1.4918   -2.2973 N   0  0  0  0  0  0
   -2.5112    2.0580   -3.5107 C   0  0  0  0  0  0
   -2.5945    1.3365   -4.7030 C   0  0  0  0  0  0
   -2.7181   -0.6530   -5.5386 H   0  0  0  0  0  0
   -2.6680   -1.7403   -3.2741 H   0  0  0  0  0  0
   -2.5169   -0.2888   -1.2550 H   0  0  0  0  0  0
   -2.4643    3.1455   -3.5312 H   0  0  0  0  0  0
   -2.6128    1.8545   -5.6568 H   0  0  0  0  0  0
  1  6  1  0  0  0
  1  2  2  0  0  0
  1  7  1  0  0  0
  2  3  1  0  0  0
  2  8  1  0  0  0
  3  4  2  0  0  0
  3  9  1  0  0  0
  4  5  1  0  0  0
  5  6  2  0  0  0
  5 10  1  0  0  0
  6 11  1  0  0  0
M  END
>  <i_m_Spin_multiplicity> (1)
1

>  <s_j_Task> (1)
Single Point

>  <s_j_QM_Method> (1)
DFT(b3lyp-d3)

>  <s_j_QM_Basis> (1)
cc-pvtz(-f)

>  <i_j_Number_of_canonical_orbitals> (1)
181

>  <i_j_Geometry_convergence_category> (1)
0

>  <r_j_Gas_Phase_Energy> (1)
-248.368403606986

>  <r_j_Final_Energy> (1)
-248.368403606986

>  <r_j_HOMO> (1)
-0.240546221126717

>  <r_j_LUMO> (1)
-0.0129409077321976

>  <r_j_Polarizability> (1)
58.1202585492911

>  <r_j_QM_Dipole_(debye)> (1)
2.19414770932724

>  <r_j_QM_Dipole_X_(debye)> (1)
-0.131956937950009

>  <r_j_QM_Dipole_Y_(debye)> (1)
-1.20868119626075

>  <r_j_QM_Dipole_Z_(debye)> (1)
-1.8264614156008

>  <r_j_Lowest_Frequency_(cm-1)> (1)
399.124988644603

>  <r_j_Highest_Frequency_(cm-1)> (1)
3152.66662302717

>  <r_j_2nd_Lowest_Frequency_(cm-1)> (1)
429.614496690656

>  <i_j_Num_Negative_Frequencies> (1)
0

>  <r_j_Zero_Point_Energy_(kcal/mol)> (1)
55.2794856124247

>  <r_j_Entropy_(cal/mol/K)_298.15K_1.00E+00atm> (1)
68.5227540262321

>  <r_j_Enthalpy_(kcal/mol)_298.15K_1.00E+00atm> (1)
3.24984206534777

>  <r_j_Free_Energy_(kcal/mol)_298.15K_1.00E+00atm> (1)
-17.1802170475733

>  <r_j_Internal_Energy_(kcal/mol)_298.15K_1.00E+00atm> (1)
2.6573564765205

>  <r_j_Heat_Capacity_(cal/mol/K)_298.15K_1.00E+00atm> (1)
16.0006804121868

>  <r_j_ln(Q)_298.15K_1.00E+00atm> (1)
28.9968521961499

>  <r_j_Total_Internal_Energy_(au)_298.15K_1.00E+00atm> (1)
-248.276075371543

>  <r_j_Total_Enthalpy_(au)_298.15K_1.00E+00atm> (1)
-248.275131185651

>  <r_j_Total_Free_Energy_(au)_298.15K_1.00E+00atm> (1)
-248.307688557435

>  <r_epik_Ionization_Penalty> (1)
  0.0072

>  <r_epik_Ionization_Penalty_Charging> (1)
  0.0000

>  <r_epik_Ionization_Penalty_Neutral> (1)
  0.0072

>  <r_epik_State_Penalty> (1)
  0.0054

>  <r_epik_Charging_Adjusted_Penalty> (1)
0.00540223

>  <i_epik_Tot_Q> (1)
0

>  <i_epik_Tot_abs_Q> (1)
0

>  <s_lp_Force_Field> (1)
S-OPLS

>  <r_lp_Energy> (1)
11.089

>  <b_lp_Chiralities_Consistent> (1)
1

$$$$
