1057_Pyrogallol
                    3D
 Schrodinger Suite 2021-3.
 15 15  0  0  1  0            999 V2000
   -2.0961    1.2167    0.0000 C   0  0  0  0  0  0
   -0.7021    1.2117    0.0000 C   0  0  0  0  0  0
    0.0019    0.0029    0.0000 C   0  0  0  0  0  0
   -0.6977   -1.2119    0.0000 C   0  0  0  0  0  0
   -2.0983   -1.1872    0.0000 C   0  0  0  0  0  0
   -2.8037    0.0156    0.0000 C   0  0  0  0  0  0
   -2.6907   -2.4317    0.0000 O   0  0  0  0  0  0
   -0.0049   -2.3868    0.0000 O   0  0  0  0  0  0
    1.3658   -0.0729    0.0000 O   0  0  0  0  0  0
   -2.6326    2.1597    0.0000 H   0  0  0  0  0  0
   -0.1478    2.1472    0.0000 H   0  0  0  0  0  0
   -3.8908    0.0059    0.0000 H   0  0  0  0  0  0
   -3.6505   -2.3349    0.0000 H   0  0  0  0  0  0
   -0.6571   -3.1029    0.0000 H   0  0  0  0  0  0
    1.7243    0.8238    0.0000 H   0  0  0  0  0  0
  1  6  1  0  0  0
  1  2  2  0  0  0
  1 10  1  0  0  0
  2  3  1  0  0  0
  2 11  1  0  0  0
  3  4  2  0  0  0
  3  9  1  0  0  0
  4  5  1  0  0  0
  4  8  1  0  0  0
  5  6  2  0  0  0
  5  7  1  0  0  0
  6 12  1  0  0  0
  7 13  1  0  0  0
  8 14  1  0  0  0
  9 15  1  0  0  0
M  END
>  <i_m_Spin_multiplicity> (1)
1

>  <s_j_Task> (1)
Single Point

>  <s_j_QM_Method> (1)
DFT(b3lyp-d3)

>  <s_j_QM_Basis> (1)
cc-pvtz(-f)

>  <i_j_Number_of_canonical_orbitals> (1)
256

>  <i_j_Geometry_convergence_category> (1)
3

>  <r_j_Gas_Phase_Energy> (1)
-458.078278216542

>  <r_j_Final_Energy> (1)
-458.078278216542

>  <r_j_HOMO> (1)
-0.214618041913672

>  <r_j_LUMO> (1)
0.00384735477625594

>  <r_j_Polarizability> (1)
77.7266362586488

>  <r_j_QM_Dipole_(debye)> (1)
2.50682099873349

>  <r_j_QM_Dipole_X_(debye)> (1)
-2.22735059067258

>  <r_j_QM_Dipole_Y_(debye)> (1)
1.15024382889965

>  <r_j_QM_Dipole_Z_(debye)> (1)
4.1374167657233e-08

>  <r_j_Lowest_Frequency_(cm-1)> (1)
153.653603441453

>  <r_j_Highest_Frequency_(cm-1)> (1)
3794.42415053167

>  <r_j_2nd_Lowest_Frequency_(cm-1)> (1)
256.79172893355

>  <i_j_Num_Negative_Frequencies> (1)
0

>  <r_j_Zero_Point_Energy_(kcal/mol)> (1)
70.7691828115034

>  <r_j_Entropy_(cal/mol/K)_298.15K_1.00E+00atm> (1)
84.980558239055

>  <r_j_Enthalpy_(kcal/mol)_298.15K_1.00E+00atm> (1)
5.44656145586043

>  <r_j_Free_Energy_(kcal/mol)_298.15K_1.00E+00atm> (1)
-19.8903919831138

>  <r_j_Internal_Energy_(kcal/mol)_298.15K_1.00E+00atm> (1)
4.85407586703315

>  <r_j_Heat_Capacity_(cal/mol/K)_298.15K_1.00E+00atm> (1)
30.7619097842779

>  <r_j_ln(Q)_298.15K_1.00E+00atm> (1)
33.5710983662632

>  <r_j_Total_Internal_Energy_(au)_298.15K_1.00E+00atm> (1)
-457.957764882013

>  <r_j_Total_Enthalpy_(au)_298.15K_1.00E+00atm> (1)
-457.956820696121

>  <r_j_Total_Free_Energy_(au)_298.15K_1.00E+00atm> (1)
-457.997197701808

>  <r_lp_tautomer_probability> (1)
1

>  <r_epik_Ionization_Penalty> (1)
  0.0073

>  <r_epik_Ionization_Penalty_Charging> (1)
  0.0000

>  <r_epik_Ionization_Penalty_Neutral> (1)
  0.0073

>  <r_epik_State_Penalty> (1)
  0.0043

>  <r_epik_Charging_Adjusted_Penalty> (1)
0.00429931

>  <i_epik_Tot_Q> (1)
0

>  <i_epik_Tot_abs_Q> (1)
0

>  <s_lp_Force_Field> (1)
S-OPLS

>  <r_lp_Energy> (1)
10.1676

>  <b_lp_Chiralities_Consistent> (1)
1

$$$$
