1060_Pyruvic acid
                    3D
 Schrodinger Suite 2021-3.
  9  8  0  0  1  0            999 V2000
   -0.0024    0.0155    0.0000 C   0  0  0  0  0  0
    1.5332    0.0185    0.0000 C   0  0  0  0  0  0
    2.1370   -1.0424    0.0001 O   0  0  0  0  0  0
    2.2478    1.4391    0.0000 C   0  0  0  0  0  0
    1.4456    2.4116    0.0002 O   0  0  0  0  0  0
    3.4941    1.4069   -0.0002 O   0  5  0  0  0  0
   -0.3804    1.0366   -0.0001 H   0  0  0  0  0  0
   -0.3596   -0.5315    0.8815 H   0  0  0  0  0  0
   -0.3596   -0.5316   -0.8816 H   0  0  0  0  0  0
  1  2  1  0  0  0
  1  7  1  0  0  0
  1  8  1  0  0  0
  1  9  1  0  0  0
  2  3  2  0  0  0
  2  4  1  0  0  0
  4  5  2  0  0  0
  4  6  1  0  0  0
M  END
>  <i_m_Spin_multiplicity> (1)
1

>  <s_j_Task> (1)
Single Point

>  <s_j_QM_Method> (1)
DFT(b3lyp-d3)

>  <s_j_QM_Basis> (1)
cc-pvtz(-f)

>  <i_j_Number_of_canonical_orbitals> (1)
165

>  <i_j_Geometry_convergence_category> (1)
0

>  <r_j_Gas_Phase_Energy> (1)
-341.97809526283

>  <r_j_Final_Energy> (1)
-341.97809526283

>  <r_j_HOMO> (1)
-0.0357413661420487

>  <r_j_LUMO> (1)
0.120647333025916

>  <r_j_Polarizability> (1)
47.0330797411563

>  <r_j_QM_Dipole_(debye)> (1)
4.40251369337972

>  <r_j_QM_Dipole_X_(debye)> (1)
-3.60296160163593

>  <r_j_QM_Dipole_Y_(debye)> (1)
-2.52997915302476

>  <r_j_QM_Dipole_Z_(debye)> (1)
-5.2849501022495e-05

>  <r_j_Lowest_Frequency_(cm-1)> (1)
53.5769993632574

>  <r_j_Highest_Frequency_(cm-1)> (1)
3113.99262043766

>  <r_j_2nd_Lowest_Frequency_(cm-1)> (1)
128.235510463557

>  <i_j_Num_Negative_Frequencies> (1)
0

>  <r_j_Zero_Point_Energy_(kcal/mol)> (1)
36.052005758669

>  <r_j_Entropy_(cal/mol/K)_298.15K_1.00E+00atm> (1)
77.2828296260302

>  <r_j_Enthalpy_(kcal/mol)_298.15K_1.00E+00atm> (1)
4.32812808303569

>  <r_j_Free_Energy_(kcal/mol)_298.15K_1.00E+00atm> (1)
-18.7137475699652

>  <r_j_Internal_Energy_(kcal/mol)_298.15K_1.00E+00atm> (1)
3.73564249420841

>  <r_j_Heat_Capacity_(cal/mol/K)_298.15K_1.00E+00atm> (1)
19.6106786810217

>  <r_j_ln(Q)_298.15K_1.00E+00atm> (1)
31.5851523190732

>  <r_j_Total_Internal_Energy_(au)_298.15K_1.00E+00atm> (1)
-341.914689608963

>  <r_j_Total_Enthalpy_(au)_298.15K_1.00E+00atm> (1)
-341.913745423071

>  <r_j_Total_Free_Energy_(au)_298.15K_1.00E+00atm> (1)
-341.950464989476

>  <r_lp_tautomer_probability> (1)
1

>  <r_epik_Ionization_Penalty> (1)
  0.0001

>  <r_epik_Ionization_Penalty_Charging> (1)
  0.0001

>  <r_epik_Ionization_Penalty_Neutral> (1)
  0.0000

>  <r_epik_State_Penalty> (1)
  0.0000

>  <r_epik_Charging_Adjusted_Penalty> (1)
0.000107805

>  <i_epik_Tot_Q> (1)
-1

>  <i_epik_Tot_abs_Q> (1)
1

>  <s_lp_Force_Field> (1)
S-OPLS

>  <r_lp_Energy> (1)
16.5252

>  <b_lp_Chiralities_Consistent> (1)
1

$$$$
