10698_2,4,6-Trimethylphenol
                    3D
 Schrodinger Suite 2021-3.
 22 22  0  0  1  0            999 V2000
   -0.0223   -0.0037    0.0000 C   0  0  0  0  0  0
    1.4890   -0.0001    0.0000 C   0  0  0  0  0  0
    2.2191    1.1887    0.0000 C   0  0  0  0  0  0
    3.6184    1.2119    0.0000 C   0  0  0  0  0  0
    4.2973   -0.0130    0.0000 C   0  0  0  0  0  0
    3.5966   -1.2348    0.0000 C   0  0  0  0  0  0
    2.2029   -1.2040    0.0000 C   0  0  0  0  0  0
    4.3544   -2.5427   -0.0001 C   0  0  0  0  0  0
    5.6725    0.0261    0.0001 O   0  0  0  0  0  0
    4.3634    2.5269   -0.0001 C   0  0  0  0  0  0
   -0.4249    1.0133    0.0000 H   0  0  0  0  0  0
   -0.4217   -0.5194    0.8814 H   0  0  0  0  0  0
   -0.4217   -0.5194   -0.8814 H   0  0  0  0  0  0
    1.6889    2.1392   -0.0001 H   0  0  0  0  0  0
    1.6595   -2.1469    0.0000 H   0  0  0  0  0  0
    3.6682   -3.3929   -0.0003 H   0  0  0  0  0  0
    4.9957   -2.6477    0.8863 H   0  0  0  0  0  0
    4.9961   -2.6474   -0.8862 H   0  0  0  0  0  0
    6.0195   -0.8736    0.0001 H   0  0  0  0  0  0
    5.4434    2.3782   -0.0001 H   0  0  0  0  0  0
    4.1011    3.1225    0.8818 H   0  0  0  0  0  0
    4.1010    3.1225   -0.8820 H   0  0  0  0  0  0
  1  2  1  0  0  0
  1 11  1  0  0  0
  1 12  1  0  0  0
  1 13  1  0  0  0
  2  7  1  0  0  0
  2  3  2  0  0  0
  3  4  1  0  0  0
  3 14  1  0  0  0
  4  5  2  0  0  0
  4 10  1  0  0  0
  5  6  1  0  0  0
  5  9  1  0  0  0
  6  7  2  0  0  0
  6  8  1  0  0  0
  7 15  1  0  0  0
  8 16  1  0  0  0
  8 17  1  0  0  0
  8 18  1  0  0  0
  9 19  1  0  0  0
 10 20  1  0  0  0
 10 21  1  0  0  0
 10 22  1  0  0  0
M  END
>  <i_m_Spin_multiplicity> (1)
1

>  <s_j_Task> (1)
Single Point

>  <s_j_QM_Method> (1)
DFT(b3lyp-d3)

>  <s_j_QM_Basis> (1)
cc-pvtz(-f)

>  <i_j_Number_of_canonical_orbitals> (1)
331

>  <i_j_Geometry_convergence_category> (1)
0

>  <r_j_Gas_Phase_Energy> (1)
-425.578338372008

>  <r_j_Final_Energy> (1)
-425.578338372008

>  <r_j_HOMO> (1)
-0.212576584923617

>  <r_j_LUMO> (1)
-0.00725662714203612

>  <r_j_Polarizability> (1)
108.837697688355

>  <r_j_QM_Dipole_(debye)> (1)
1.38079646418041

>  <r_j_QM_Dipole_X_(debye)> (1)
0.0658040105132199

>  <r_j_QM_Dipole_Y_(debye)> (1)
-1.37922757597946

>  <r_j_QM_Dipole_Z_(debye)> (1)
-3.67601082879651e-05

>  <r_j_Lowest_Frequency_(cm-1)> (1)
126.767784507215

>  <r_j_Highest_Frequency_(cm-1)> (1)
3793.4364849429

>  <r_j_2nd_Lowest_Frequency_(cm-1)> (1)
142.976585039935

>  <i_j_Num_Negative_Frequencies> (1)
0

>  <r_j_Zero_Point_Energy_(kcal/mol)> (1)
117.154485601398

>  <r_j_Entropy_(cal/mol/K)_298.15K_1.00E+00atm> (1)
95.7436981420875

>  <r_j_Enthalpy_(kcal/mol)_298.15K_1.00E+00atm> (1)
6.95499720849652

>  <r_j_Free_Energy_(kcal/mol)_298.15K_1.00E+00atm> (1)
-21.5909863925669

>  <r_j_Internal_Energy_(kcal/mol)_298.15K_1.00E+00atm> (1)
6.36251161966924

>  <r_j_Heat_Capacity_(cal/mol/K)_298.15K_1.00E+00atm> (1)
39.2825341188528

>  <r_j_ln(Q)_298.15K_1.00E+00atm> (1)
36.4413697138231

>  <r_j_Total_Internal_Energy_(au)_298.15K_1.00E+00atm> (1)
-425.381501506389

>  <r_j_Total_Enthalpy_(au)_298.15K_1.00E+00atm> (1)
-425.380557320497

>  <r_j_Total_Free_Energy_(au)_298.15K_1.00E+00atm> (1)
-425.426048241297

>  <r_lp_tautomer_probability> (1)
1

>  <r_epik_Ionization_Penalty> (1)
  0.0001

>  <r_epik_Ionization_Penalty_Charging> (1)
  0.0000

>  <r_epik_Ionization_Penalty_Neutral> (1)
  0.0001

>  <r_epik_State_Penalty> (1)
  0.0000

>  <r_epik_Charging_Adjusted_Penalty> (1)
0

>  <i_epik_Tot_Q> (1)
0

>  <i_epik_Tot_abs_Q> (1)
0

>  <s_lp_Force_Field> (1)
S-OPLS

>  <r_lp_Energy> (1)
4.70857

>  <b_lp_Chiralities_Consistent> (1)
1

$$$$
