10703_1-Methyl-2-isopropylbenzene
                    3D
 Schrodinger Suite 2021-3.
 24 24  0  0  1  0            999 V2000
   -0.0045    2.5651    0.0049 C   0  0  0  0  0  0
   -0.7162    1.2283    0.0017 C   0  0  0  0  0  0
   -2.1174    1.2043    0.0016 C   0  0  0  0  0  0
   -2.8292    0.0072   -0.0008 C   0  0  0  0  0  0
   -2.1354   -1.2010   -0.0029 C   0  0  0  0  0  0
   -0.7429   -1.1909   -0.0032 C   0  0  0  0  0  0
   -0.0123    0.0053   -0.0013 C   0  0  0  0  0  0
    1.5127   -0.0569   -0.0021 C   0  0  0  0  0  0
    2.0487   -0.7493   -1.2690 C   0  0  0  0  0  0
    2.0495   -0.7390    1.2702 C   0  0  0  0  0  0
   -0.7247    3.3879    0.0089 H   0  0  0  0  0  0
    0.6329    2.6900   -0.8777 H   0  0  0  0  0  0
    0.6370    2.6846    0.8854 H   0  0  0  0  0  0
   -2.6589    2.1472    0.0035 H   0  0  0  0  0  0
   -3.9155    0.0195   -0.0009 H   0  0  0  0  0  0
   -2.6730   -2.1450   -0.0045 H   0  0  0  0  0  0
   -0.2093   -2.1377   -0.0049 H   0  0  0  0  0  0
    1.9024    0.9652   -0.0064 H   0  0  0  0  0  0
    1.6880   -0.2501   -2.1738 H   0  0  0  0  0  0
    1.7270   -1.7952   -1.3162 H   0  0  0  0  0  0
    3.1442   -0.7371   -1.2832 H   0  0  0  0  0  0
    1.6909   -0.2311    2.1710 H   0  0  0  0  0  0
    3.1450   -0.7286    1.2828 H   0  0  0  0  0  0
    1.7257   -1.7838    1.3269 H   0  0  0  0  0  0
  1  2  1  0  0  0
  1 11  1  0  0  0
  1 12  1  0  0  0
  1 13  1  0  0  0
  2  7  1  0  0  0
  2  3  2  0  0  0
  3  4  1  0  0  0
  3 14  1  0  0  0
  4  5  2  0  0  0
  4 15  1  0  0  0
  5  6  1  0  0  0
  5 16  1  0  0  0
  6  7  2  0  0  0
  6 17  1  0  0  0
  7  8  1  0  0  0
  8  9  1  0  0  0
  8 10  1  0  0  0
  8 18  1  0  0  0
  9 19  1  0  0  0
  9 20  1  0  0  0
  9 21  1  0  0  0
 10 22  1  0  0  0
 10 23  1  0  0  0
 10 24  1  0  0  0
M  END
>  <i_m_Spin_multiplicity> (1)
1

>  <s_j_Task> (1)
Single Point

>  <s_j_QM_Method> (1)
DFT(b3lyp-d3)

>  <s_j_QM_Basis> (1)
cc-pvtz(-f)

>  <i_j_Number_of_canonical_orbitals> (1)
348

>  <i_j_Geometry_convergence_category> (1)
0

>  <r_j_Gas_Phase_Energy> (1)
-389.651972785649

>  <r_j_Final_Energy> (1)
-389.651972785649

>  <r_j_HOMO> (1)
-0.237877773466028

>  <r_j_LUMO> (1)
-0.00864705079573648

>  <r_j_Polarizability> (1)
113.962154651325

>  <r_j_QM_Dipole_(debye)> (1)
0.614955608844588

>  <r_j_QM_Dipole_X_(debye)> (1)
0.51641979355125

>  <r_j_QM_Dipole_Y_(debye)> (1)
0.333887661464501

>  <r_j_QM_Dipole_Z_(debye)> (1)
0.000164923222865274

>  <r_j_Lowest_Frequency_(cm-1)> (1)
70.2096003827986

>  <r_j_Highest_Frequency_(cm-1)> (1)
3143.81622158855

>  <r_j_2nd_Lowest_Frequency_(cm-1)> (1)
131.536586555989

>  <i_j_Num_Negative_Frequencies> (1)
0

>  <r_j_Zero_Point_Energy_(kcal/mol)> (1)
133.159686919716

>  <r_j_Entropy_(cal/mol/K)_298.15K_1.00E+00atm> (1)
93.6897822552019

>  <r_j_Enthalpy_(kcal/mol)_298.15K_1.00E+00atm> (1)
6.62537058542553

>  <r_j_Free_Energy_(kcal/mol)_298.15K_1.00E+00atm> (1)
-21.3082379939629

>  <r_j_Internal_Energy_(kcal/mol)_298.15K_1.00E+00atm> (1)
6.03288499659826

>  <r_j_Heat_Capacity_(cal/mol/K)_298.15K_1.00E+00atm> (1)
38.522672012709

>  <r_j_ln(Q)_298.15K_1.00E+00atm> (1)
35.9641456193711

>  <r_j_Total_Internal_Energy_(au)_298.15K_1.00E+00atm> (1)
-389.430155301498

>  <r_j_Total_Enthalpy_(au)_298.15K_1.00E+00atm> (1)
-389.429211115606

>  <r_j_Total_Free_Energy_(au)_298.15K_1.00E+00atm> (1)
-389.473726154685

>  <r_lp_tautomer_probability> (1)
1

>  <r_epik_Ionization_Penalty> (1)
  0.0000

>  <r_epik_Ionization_Penalty_Charging> (1)
  0.0000

>  <r_epik_Ionization_Penalty_Neutral> (1)
  0.0000

>  <r_epik_State_Penalty> (1)
  0.0000

>  <r_epik_Charging_Adjusted_Penalty> (1)
0

>  <i_epik_Tot_Q> (1)
0

>  <i_epik_Tot_abs_Q> (1)
0

>  <s_lp_Force_Field> (1)
S-OPLS

>  <r_lp_Energy> (1)
12.8837

>  <b_lp_Chiralities_Consistent> (1)
1

$$$$
