107252_Cyclohexane, 1-methyl-2-propyl, trans
                    3D
 Schrodinger Suite 2021-3.
 30 30  0  0  1  0            999 V2000
   -0.5924    1.5272    0.1402 C   0  0  0  0  0  0
   -0.1004    0.0873   -0.0394 C   0  0  0  0  0  0
    1.4319   -0.0087   -0.0638 C   0  0  0  0  0  0
    2.0028   -1.4403   -0.0651 C   0  0  0  0  0  0
    1.4939   -2.2556   -1.2723 C   0  0  0  0  0  0
    2.0423   -3.6882   -1.2978 C   0  0  0  0  0  0
    3.5744   -3.6934   -1.2629 C   0  0  0  0  0  0
    4.0892   -2.9017   -0.0560 C   0  0  0  0  0  0
    3.5544   -1.4560   -0.0190 C   0  0  0  0  0  0
    4.1310   -0.7191    1.1982 C   0  0  0  0  0  0
   -1.6860    1.5813    0.1467 H   0  0  0  0  0  0
   -0.2317    2.1700   -0.6712 H   0  0  0  0  0  0
   -0.2309    1.9542    1.0829 H   0  0  0  0  0  0
   -0.4882   -0.5387    0.7764 H   0  0  0  0  0  0
   -0.5221   -0.3218   -0.9648 H   0  0  0  0  0  0
    1.8151    0.5309   -0.9431 H   0  0  0  0  0  0
    1.8130    0.5305    0.8113 H   0  0  0  0  0  0
    1.6477   -1.9432    0.8506 H   0  0  0  0  0  0
    0.3993   -2.2853   -1.2713 H   0  0  0  0  0  0
    1.7899   -1.7357   -2.1962 H   0  0  0  0  0  0
    1.6601   -4.2350   -0.4239 H   0  0  0  0  0  0
    1.6734   -4.2183   -2.1840 H   0  0  0  0  0  0
    3.9576   -4.7206   -1.2375 H   0  0  0  0  0  0
    3.9592   -3.2370   -2.1862 H   0  0  0  0  0  0
    3.7846   -3.4128    0.8699 H   0  0  0  0  0  0
    5.1863   -2.8848   -0.0522 H   0  0  0  0  0  0
    3.9116   -0.9471   -0.9294 H   0  0  0  0  0  0
    3.7213   -1.1290    2.1299 H   0  0  0  0  0  0
    3.9158    0.3524    1.1814 H   0  0  0  0  0  0
    5.2198   -0.8330    1.2381 H   0  0  0  0  0  0
  1  2  1  0  0  0
  1 11  1  0  0  0
  1 12  1  0  0  0
  1 13  1  0  0  0
  2  3  1  0  0  0
  2 14  1  0  0  0
  2 15  1  0  0  0
  3  4  1  0  0  0
  3 16  1  0  0  0
  3 17  1  0  0  0
  4  9  1  0  0  0
  4  5  1  0  0  0
  4 18  1  0  0  0
  5  6  1  0  0  0
  5 19  1  0  0  0
  5 20  1  0  0  0
  6  7  1  0  0  0
  6 21  1  0  0  0
  6 22  1  0  0  0
  7  8  1  0  0  0
  7 23  1  0  0  0
  7 24  1  0  0  0
  8  9  1  0  0  0
  8 25  1  0  0  0
  8 26  1  0  0  0
  9 10  1  0  0  0
  9 27  1  0  0  0
 10 28  1  0  0  0
 10 29  1  0  0  0
 10 30  1  0  0  0
M  END
>  <i_m_Spin_multiplicity> (1)
1

>  <s_j_Task> (1)
Single Point

>  <s_j_QM_Method> (1)
DFT(b3lyp-d3)

>  <s_j_QM_Basis> (1)
cc-pvtz(-f)

>  <i_j_Number_of_canonical_orbitals> (1)
405

>  <i_j_Geometry_convergence_category> (1)
0

>  <r_j_Gas_Phase_Energy> (1)
-393.291275571962

>  <r_j_Final_Energy> (1)
-393.291275571962

>  <r_j_HOMO> (1)
-0.295642621458655

>  <r_j_LUMO> (1)
0.023554341725411

>  <r_j_Polarizability> (1)
117.898596034202

>  <r_j_QM_Dipole_(debye)> (1)
0.105066434275131

>  <r_j_QM_Dipole_X_(debye)> (1)
-0.0304911077035929

>  <r_j_QM_Dipole_Y_(debye)> (1)
-0.0769069165272307

>  <r_j_QM_Dipole_Z_(debye)> (1)
-0.0647655321337809

>  <r_j_Lowest_Frequency_(cm-1)> (1)
99.1229474356769

>  <r_j_Highest_Frequency_(cm-1)> (1)
3061.72511771533

>  <r_j_2nd_Lowest_Frequency_(cm-1)> (1)
136.206557658257

>  <i_j_Num_Negative_Frequencies> (1)
0

>  <r_j_Zero_Point_Energy_(kcal/mol)> (1)
177.242866140804

>  <r_j_Entropy_(cal/mol/K)_298.15K_1.00E+00atm> (1)
98.8052358485625

>  <r_j_Enthalpy_(kcal/mol)_298.15K_1.00E+00atm> (1)
7.30544236788773

>  <r_j_Free_Energy_(kcal/mol)_298.15K_1.00E+00atm> (1)
-22.1533387003612

>  <r_j_Internal_Energy_(kcal/mol)_298.15K_1.00E+00atm> (1)
6.71295677906046

>  <r_j_Heat_Capacity_(cal/mol/K)_298.15K_1.00E+00atm> (1)
42.9597030466186

>  <r_j_ln(Q)_298.15K_1.00E+00atm> (1)
37.3905106185114

>  <r_j_Total_Internal_Energy_(au)_298.15K_1.00E+00atm> (1)
-392.998123306196

>  <r_j_Total_Enthalpy_(au)_298.15K_1.00E+00atm> (1)
-392.997179120304

>  <r_j_Total_Free_Energy_(au)_298.15K_1.00E+00atm> (1)
-393.044124676469

>  <r_lp_tautomer_probability> (1)
1

>  <r_epik_Ionization_Penalty> (1)
  0.0000

>  <r_epik_Ionization_Penalty_Charging> (1)
  0.0000

>  <r_epik_Ionization_Penalty_Neutral> (1)
  0.0000

>  <r_epik_State_Penalty> (1)
  0.0000

>  <r_epik_Charging_Adjusted_Penalty> (1)
0

>  <i_epik_Tot_Q> (1)
0

>  <i_epik_Tot_abs_Q> (1)
0

>  <s_lp_Force_Field> (1)
S-OPLS

>  <r_lp_Energy> (1)
13.4868

>  <b_lp_Chiralities_Consistent> (1)
1

$$$$
