10821_Ethynyl Benzene
                    3D
 Schrodinger Suite 2021-3.
 14 14  0  0  1  0            999 V2000
   -1.1720    0.0027    0.0004 C   0  0  0  0  0  0
    0.0383    0.0005    0.0003 C   0  0  0  0  0  0
    1.4685    0.0009    0.0001 C   0  0  0  0  0  0
    2.1815    1.2140    0.0000 C   0  0  0  0  0  0
    3.5735    1.2078   -0.0001 C   0  0  0  0  0  0
    4.2728   -0.0009   -0.0002 C   0  0  0  0  0  0
    3.5724   -1.2088   -0.0001 C   0  0  0  0  0  0
    2.1807   -1.2123    0.0000 C   0  0  0  0  0  0
   -2.2368    0.0019    0.0009 H   0  0  0  0  0  0
    1.6335    2.1505    0.0000 H   0  0  0  0  0  0
    4.1150    2.1492   -0.0002 H   0  0  0  0  0  0
    5.3588   -0.0018   -0.0002 H   0  0  0  0  0  0
    4.1122   -2.1513   -0.0002 H   0  0  0  0  0  0
    1.6319   -2.1482    0.0000 H   0  0  0  0  0  0
  1  2  3  0  0  0
  1  9  1  0  0  0
  2  3  1  0  0  0
  3  8  1  0  0  0
  3  4  2  0  0  0
  4  5  1  0  0  0
  4 10  1  0  0  0
  5  6  2  0  0  0
  5 11  1  0  0  0
  6  7  1  0  0  0
  6 12  1  0  0  0
  7  8  2  0  0  0
  7 13  1  0  0  0
  8 14  1  0  0  0
M  END
>  <i_m_Spin_multiplicity> (1)
1

>  <s_j_Task> (1)
Single Point

>  <s_j_QM_Method> (1)
DFT(b3lyp-d3)

>  <s_j_QM_Basis> (1)
cc-pvtz(-f)

>  <i_j_Number_of_canonical_orbitals> (1)
232

>  <i_j_Geometry_convergence_category> (1)
0

>  <r_j_Gas_Phase_Energy> (1)
-308.500657343839

>  <r_j_Final_Energy> (1)
-308.500657343839

>  <r_j_HOMO> (1)
-0.24280866663355

>  <r_j_LUMO> (1)
-0.0440075061425728

>  <r_j_Polarizability> (1)
89.0923137735471

>  <r_j_QM_Dipole_(debye)> (1)
0.740006802843359

>  <r_j_QM_Dipole_X_(debye)> (1)
0.740005299705168

>  <r_j_QM_Dipole_Y_(debye)> (1)
-0.00146892884088035

>  <r_j_QM_Dipole_Z_(debye)> (1)
0.000258671172352191

>  <r_j_Lowest_Frequency_(cm-1)> (1)
173.282388694502

>  <r_j_Highest_Frequency_(cm-1)> (1)
3426.52619756727

>  <r_j_2nd_Lowest_Frequency_(cm-1)> (1)
196.918231715548

>  <i_j_Num_Negative_Frequencies> (1)
0

>  <r_j_Zero_Point_Energy_(kcal/mol)> (1)
68.392010476523

>  <r_j_Entropy_(cal/mol/K)_298.15K_1.00E+00atm> (1)
78.4950016150901

>  <r_j_Enthalpy_(kcal/mol)_298.15K_1.00E+00atm> (1)
4.50066432404512

>  <r_j_Free_Energy_(kcal/mol)_298.15K_1.00E+00atm> (1)
-18.902620407494

>  <r_j_Internal_Energy_(kcal/mol)_298.15K_1.00E+00atm> (1)
3.90817873521785

>  <r_j_Heat_Capacity_(cal/mol/K)_298.15K_1.00E+00atm> (1)
24.7872346935867

>  <r_j_ln(Q)_298.15K_1.00E+00atm> (1)
31.903932794228

>  <r_j_Total_Internal_Energy_(au)_298.15K_1.00E+00atm> (1)
-308.385439657624

>  <r_j_Total_Enthalpy_(au)_298.15K_1.00E+00atm> (1)
-308.384495471731

>  <r_j_Total_Free_Energy_(au)_298.15K_1.00E+00atm> (1)
-308.421790980167

>  <r_lp_tautomer_probability> (1)
1

>  <r_epik_Ionization_Penalty> (1)
  0.0000

>  <r_epik_Ionization_Penalty_Charging> (1)
  0.0000

>  <r_epik_Ionization_Penalty_Neutral> (1)
  0.0000

>  <r_epik_State_Penalty> (1)
  0.0000

>  <r_epik_Charging_Adjusted_Penalty> (1)
0

>  <i_epik_Tot_Q> (1)
0

>  <i_epik_Tot_abs_Q> (1)
0

>  <s_lp_Force_Field> (1)
S-OPLS

>  <r_lp_Energy> (1)
8.96377

>  <b_lp_Chiralities_Consistent> (1)
1

$$$$
