108537_1-ethyl-2,4-dimethylcyclohexane
                    3D
 Schrodinger Suite 2021-3.
 30 30  0  0  1  0            999 V2000
   -0.6247    1.5182   -0.1005 C   0  0  0  0  0  0
   -0.0522    0.0967   -0.0391 C   0  0  0  0  0  0
    1.4863    0.0216    0.0203 C   0  0  0  0  0  0
    2.0457    0.7783    1.2425 C   0  0  0  0  0  0
    3.5776    0.7224    1.3250 C   0  0  0  0  0  0
    4.1182   -0.7200    1.3202 C   0  0  0  0  0  0
    3.5463   -1.4711    0.1033 C   0  0  0  0  0  0
    2.0068   -1.4399    0.0059 C   0  0  0  0  0  0
    1.5571   -2.2287   -1.2327 C   0  0  0  0  0  0
    3.8433   -1.4536    2.6426 C   0  0  0  0  0  0
   -1.7076    1.4950   -0.2607 H   0  0  0  0  0  0
   -0.1791    2.0849   -0.9267 H   0  0  0  0  0  0
   -0.4430    2.0785    0.8213 H   0  0  0  0  0  0
   -0.4665   -0.4297    0.8331 H   0  0  0  0  0  0
   -0.4054   -0.4499   -0.9197 H   0  0  0  0  0  0
    1.8810    0.5140   -0.8853 H   0  0  0  0  0  0
    1.7300    1.8264    1.2111 H   0  0  0  0  0  0
    1.6020    0.3542    2.1543 H   0  0  0  0  0  0
    3.9941    1.2574    0.4602 H   0  0  0  0  0  0
    3.9267    1.2553    2.2185 H   0  0  0  0  0  0
    5.2093   -0.6719    1.2000 H   0  0  0  0  0  0
    3.9550   -1.0230   -0.8144 H   0  0  0  0  0  0
    3.8893   -2.5141    0.1149 H   0  0  0  0  0  0
    1.5937   -1.9432    0.8934 H   0  0  0  0  0  0
    1.8606   -1.7130   -2.1524 H   0  0  0  0  0  0
    0.4740   -2.3701   -1.2703 H   0  0  0  0  0  0
    2.0168   -3.2229   -1.2449 H   0  0  0  0  0  0
    2.7730   -1.5453    2.8516 H   0  0  0  0  0  0
    4.2975   -0.9212    3.4854 H   0  0  0  0  0  0
    4.2604   -2.4665    2.6208 H   0  0  0  0  0  0
  1  2  1  0  0  0
  1 11  1  0  0  0
  1 12  1  0  0  0
  1 13  1  0  0  0
  2  3  1  0  0  0
  2 14  1  0  0  0
  2 15  1  0  0  0
  3  8  1  0  0  0
  3  4  1  0  0  0
  3 16  1  0  0  0
  4  5  1  0  0  0
  4 17  1  0  0  0
  4 18  1  0  0  0
  5  6  1  0  0  0
  5 19  1  0  0  0
  5 20  1  0  0  0
  6  7  1  0  0  0
  6 10  1  0  0  0
  6 21  1  0  0  0
  7  8  1  0  0  0
  7 22  1  0  0  0
  7 23  1  0  0  0
  8  9  1  0  0  0
  8 24  1  0  0  0
  9 25  1  0  0  0
  9 26  1  0  0  0
  9 27  1  0  0  0
 10 28  1  0  0  0
 10 29  1  0  0  0
 10 30  1  0  0  0
M  END
>  <i_m_Spin_multiplicity> (1)
1

>  <s_j_Task> (1)
Single Point

>  <s_j_QM_Method> (1)
DFT(b3lyp-d3)

>  <s_j_QM_Basis> (1)
cc-pvtz(-f)

>  <i_j_Number_of_canonical_orbitals> (1)
406

>  <i_j_Geometry_convergence_category> (1)
0

>  <r_j_Gas_Phase_Energy> (1)
-393.291129965828

>  <r_j_Final_Energy> (1)
-393.291129965828

>  <r_j_HOMO> (1)
-0.292814680403102

>  <r_j_LUMO> (1)
0.0182862687200868

>  <r_j_Polarizability> (1)
116.859409242507

>  <r_j_QM_Dipole_(debye)> (1)
0.0483042050186658

>  <r_j_QM_Dipole_X_(debye)> (1)
0.0452261517356291

>  <r_j_QM_Dipole_Y_(debye)> (1)
0.0135549165600589

>  <r_j_QM_Dipole_Z_(debye)> (1)
0.0102056679703481

>  <r_j_Lowest_Frequency_(cm-1)> (1)
92.0980485407201

>  <r_j_Highest_Frequency_(cm-1)> (1)
3063.24517534417

>  <r_j_2nd_Lowest_Frequency_(cm-1)> (1)
137.506699079109

>  <i_j_Num_Negative_Frequencies> (1)
0

>  <r_j_Zero_Point_Energy_(kcal/mol)> (1)
177.107810309984

>  <r_j_Entropy_(cal/mol/K)_298.15K_1.00E+00atm> (1)
97.8800003967506

>  <r_j_Enthalpy_(kcal/mol)_298.15K_1.00E+00atm> (1)
7.29506678375167

>  <r_j_Free_Energy_(kcal/mol)_298.15K_1.00E+00atm> (1)
-21.8878553345395

>  <r_j_Internal_Energy_(kcal/mol)_298.15K_1.00E+00atm> (1)
6.7025811949244

>  <r_j_Heat_Capacity_(cal/mol/K)_298.15K_1.00E+00atm> (1)
43.5277296994442

>  <r_j_ln(Q)_298.15K_1.00E+00atm> (1)
36.9424265286568

>  <r_j_Total_Internal_Energy_(au)_298.15K_1.00E+00atm> (1)
-392.998209459776

>  <r_j_Total_Enthalpy_(au)_298.15K_1.00E+00atm> (1)
-392.997265273883

>  <r_j_Total_Free_Energy_(au)_298.15K_1.00E+00atm> (1)
-393.043771220827

>  <r_lp_tautomer_probability> (1)
1

>  <r_epik_Ionization_Penalty> (1)
  0.0000

>  <r_epik_Ionization_Penalty_Charging> (1)
  0.0000

>  <r_epik_Ionization_Penalty_Neutral> (1)
  0.0000

>  <r_epik_State_Penalty> (1)
  0.0000

>  <r_epik_Charging_Adjusted_Penalty> (1)
0

>  <i_epik_Tot_Q> (1)
0

>  <i_epik_Tot_abs_Q> (1)
0

>  <s_lp_Force_Field> (1)
S-OPLS

>  <r_lp_Energy> (1)
15.6477

>  <b_lp_Chiralities_Consistent> (1)
1

$$$$
