10864_N-pentylbenzene
                    3D
 Schrodinger Suite 2021-3.
 27 27  0  0  1  0            999 V2000
   -2.1220    1.5079    0.0005 C   0  0  0  0  0  0
   -0.5915    1.4571    0.0006 C   0  0  0  0  0  0
   -0.0391    0.0268   -0.0001 C   0  0  0  0  0  0
    1.4912   -0.0289    0.0000 C   0  0  0  0  0  0
    2.0487   -1.4653   -0.0008 C   0  0  0  0  0  0
    3.5603   -1.4894   -0.0004 C   0  0  0  0  0  0
    4.2782   -1.4698   -1.2028 C   0  0  0  0  0  0
    5.6724   -1.4288   -1.2054 C   0  0  0  0  0  0
    6.3745   -1.4068    0.0003 C   0  0  0  0  0  0
    5.6717   -1.4270    1.2057 C   0  0  0  0  0  0
    4.2776   -1.4681    1.2023 C   0  0  0  0  0  0
   -2.4910    2.5388    0.0011 H   0  0  0  0  0  0
   -2.5328    1.0057    0.8840 H   0  0  0  0  0  0
   -2.5328    1.0067   -0.8835 H   0  0  0  0  0  0
   -0.2045    1.9935   -0.8764 H   0  0  0  0  0  0
   -0.2046    1.9926    0.8781 H   0  0  0  0  0  0
   -0.4243   -0.5125    0.8774 H   0  0  0  0  0  0
   -0.4242   -0.5115   -0.8783 H   0  0  0  0  0  0
    1.8827    0.5047   -0.8765 H   0  0  0  0  0  0
    1.8825    0.5037    0.8772 H   0  0  0  0  0  0
    1.6661   -1.9994    0.8783 H   0  0  0  0  0  0
    1.6665   -1.9983   -0.8806 H   0  0  0  0  0  0
    3.7366   -1.4870   -2.1459 H   0  0  0  0  0  0
    6.2109   -1.4171   -2.1491 H   0  0  0  0  0  0
    7.4603   -1.3767    0.0006 H   0  0  0  0  0  0
    6.2097   -1.4140    2.1496 H   0  0  0  0  0  0
    3.7354   -1.4839    2.1451 H   0  0  0  0  0  0
  1  2  1  0  0  0
  1 12  1  0  0  0
  1 13  1  0  0  0
  1 14  1  0  0  0
  2  3  1  0  0  0
  2 15  1  0  0  0
  2 16  1  0  0  0
  3  4  1  0  0  0
  3 17  1  0  0  0
  3 18  1  0  0  0
  4  5  1  0  0  0
  4 19  1  0  0  0
  4 20  1  0  0  0
  5  6  1  0  0  0
  5 21  1  0  0  0
  5 22  1  0  0  0
  6 11  1  0  0  0
  6  7  2  0  0  0
  7  8  1  0  0  0
  7 23  1  0  0  0
  8  9  2  0  0  0
  8 24  1  0  0  0
  9 10  1  0  0  0
  9 25  1  0  0  0
 10 11  2  0  0  0
 10 26  1  0  0  0
 11 27  1  0  0  0
M  END
>  <i_m_Spin_multiplicity> (1)
1

>  <s_j_Task> (1)
Single Point

>  <s_j_QM_Method> (1)
DFT(b3lyp-d3)

>  <s_j_QM_Basis> (1)
cc-pvtz(-f)

>  <i_j_Number_of_canonical_orbitals> (1)
389

>  <i_j_Geometry_convergence_category> (1)
3

>  <r_j_Gas_Phase_Energy> (1)
-428.980634928885

>  <r_j_Final_Energy> (1)
-428.980634928885

>  <r_j_HOMO> (1)
-0.250748326647422

>  <r_j_LUMO> (1)
-0.0181161693146372

>  <r_j_Polarizability> (1)
127.510289123828

>  <r_j_QM_Dipole_(debye)> (1)
0.417619680746058

>  <r_j_QM_Dipole_X_(debye)> (1)
-0.379539072333742

>  <r_j_QM_Dipole_Y_(debye)> (1)
0.17423056578939

>  <r_j_QM_Dipole_Z_(debye)> (1)
1.62231585067191e-05

>  <r_j_Lowest_Frequency_(cm-1)> (1)
68.6109405098921

>  <r_j_Highest_Frequency_(cm-1)> (1)
3144.80847264333

>  <r_j_2nd_Lowest_Frequency_(cm-1)> (1)
81.6057131607956

>  <i_j_Num_Negative_Frequencies> (1)
0

>  <r_j_Zero_Point_Energy_(kcal/mol)> (1)
151.574452294222

>  <r_j_Entropy_(cal/mol/K)_298.15K_1.00E+00atm> (1)
100.793948149957

>  <r_j_Enthalpy_(kcal/mol)_298.15K_1.00E+00atm> (1)
7.29785330665052

>  <r_j_Free_Energy_(kcal/mol)_298.15K_1.00E+00atm> (1)
-22.7538623342591

>  <r_j_Internal_Energy_(kcal/mol)_298.15K_1.00E+00atm> (1)
6.70536771782325

>  <r_j_Heat_Capacity_(cal/mol/K)_298.15K_1.00E+00atm> (1)
41.7330704197136

>  <r_j_ln(Q)_298.15K_1.00E+00atm> (1)
38.4040772692827

>  <r_j_Total_Internal_Energy_(au)_298.15K_1.00E+00atm> (1)
-428.728399978532

>  <r_j_Total_Enthalpy_(au)_298.15K_1.00E+00atm> (1)
-428.727455792639

>  <r_j_Total_Free_Energy_(au)_298.15K_1.00E+00atm> (1)
-428.775346250198

>  <r_lp_tautomer_probability> (1)
1

>  <r_epik_Ionization_Penalty> (1)
  0.0000

>  <r_epik_Ionization_Penalty_Charging> (1)
  0.0000

>  <r_epik_Ionization_Penalty_Neutral> (1)
  0.0000

>  <r_epik_State_Penalty> (1)
  0.0000

>  <r_epik_Charging_Adjusted_Penalty> (1)
0

>  <i_epik_Tot_Q> (1)
0

>  <i_epik_Tot_abs_Q> (1)
0

>  <s_lp_Force_Field> (1)
S-OPLS

>  <r_lp_Energy> (1)
10.503377

>  <b_lp_Chiralities_Consistent> (1)
1

$$$$
