10900_Trans-1,2-dichloroethene
                    3D
 Schrodinger Suite 2021-3.
  6  5  0  0  1  0            999 V2000
   -0.2784    0.5636   -0.1448 C   0  0  0  0  0  0
    0.6875   -0.0125    0.5640 C   0  0  0  0  0  0
    0.3287   -1.0159    1.9455 Cl  0  0  0  0  0  0
    0.0804    1.5669   -1.5263 Cl  0  0  0  0  0  0
   -1.3341    0.4582    0.0734 H   0  0  0  0  0  0
    1.7432    0.0928    0.3458 H   0  0  0  0  0  0
  1  2  2  0  0  0
  1  4  1  0  0  0
  1  5  1  0  0  0
  2  3  1  0  0  0
  2  6  1  0  0  0
M  END
>  <i_m_Spin_multiplicity> (1)
1

>  <s_j_Task> (1)
Single Point

>  <s_j_QM_Method> (1)
DFT(b3lyp-d3)

>  <s_j_QM_Basis> (1)
cc-pvtz(-f)

>  <i_j_Number_of_canonical_orbitals> (1)
118

>  <i_j_Geometry_convergence_category> (1)
0

>  <r_j_Gas_Phase_Energy> (1)
-997.882234794682

>  <r_j_Final_Energy> (1)
-997.882234794682

>  <r_j_HOMO> (1)
-0.263836587612093

>  <r_j_LUMO> (1)
-0.031746010350913

>  <r_j_Polarizability> (1)
48.4800394411683

>  <r_j_QM_Dipole_(debye)> (1)
0.000224888046771178

>  <r_j_QM_Dipole_X_(debye)> (1)
1.62438328821627e-05

>  <r_j_QM_Dipole_Y_(debye)> (1)
8.98252224530442e-05

>  <r_j_QM_Dipole_Z_(debye)> (1)
-0.000205529075522451

>  <r_j_Lowest_Frequency_(cm-1)> (1)
211.697473887453

>  <r_j_Highest_Frequency_(cm-1)> (1)
3177.32991614249

>  <r_j_2nd_Lowest_Frequency_(cm-1)> (1)
242.344428634202

>  <i_j_Num_Negative_Frequencies> (1)
0

>  <r_j_Zero_Point_Energy_(kcal/mol)> (1)
21.0354790840461

>  <r_j_Entropy_(cal/mol/K)_298.15K_1.00E+00atm> (1)
70.7649879212728

>  <r_j_Enthalpy_(kcal/mol)_298.15K_1.00E+00atm> (1)
3.4342242048623

>  <r_j_Free_Energy_(kcal/mol)_298.15K_1.00E+00atm> (1)
-17.6643569438652

>  <r_j_Internal_Energy_(kcal/mol)_298.15K_1.00E+00atm> (1)
2.84173861603503

>  <r_j_Heat_Capacity_(cal/mol/K)_298.15K_1.00E+00atm> (1)
13.8143948888361

>  <r_j_ln(Q)_298.15K_1.00E+00atm> (1)
29.8139858200244

>  <r_j_Total_Internal_Energy_(au)_298.15K_1.00E+00atm> (1)
-997.844184025982

>  <r_j_Total_Enthalpy_(au)_298.15K_1.00E+00atm> (1)
-997.84323984009

>  <r_j_Total_Free_Energy_(au)_298.15K_1.00E+00atm> (1)
-997.876862569558

>  <r_lp_tautomer_probability> (1)
1

>  <r_epik_Ionization_Penalty> (1)
  0.0000

>  <r_epik_Ionization_Penalty_Charging> (1)
  0.0000

>  <r_epik_Ionization_Penalty_Neutral> (1)
  0.0000

>  <r_epik_State_Penalty> (1)
  0.0000

>  <r_epik_Charging_Adjusted_Penalty> (1)
0

>  <i_epik_Tot_Q> (1)
0

>  <i_epik_Tot_abs_Q> (1)
0

>  <s_lp_Force_Field> (1)
S-OPLS

>  <r_lp_Energy> (1)
0.102162

>  <b_lp_Chiralities_Consistent> (1)
1

$$$$
