10997535_Methoxynaphthol
                    3D
 Schrodinger Suite 2021-3.
 23 24  0  0  1  0            999 V2000
   -0.7066    1.1642   -0.0001 C   0  0  0  0  0  0
    0.0552   -0.0328    0.0000 O   0  0  0  0  0  0
    1.4310    0.0672    0.0000 C   0  0  0  0  0  0
    2.0873   -1.1576    0.0000 C   0  0  0  0  0  0
    3.5029   -1.2146    0.0000 C   0  0  0  0  0  0
    4.2035   -2.4511    0.0000 C   0  0  0  0  0  0
    5.5784   -2.4711   -0.0001 C   0  0  0  0  0  0
    6.3157   -1.2604    0.0000 C   0  0  0  0  0  0
    5.6617   -0.0514    0.0000 C   0  0  0  0  0  0
    4.2414    0.0138    0.0000 C   0  0  0  0  0  0
    3.5405    1.2439    0.0000 C   0  0  0  0  0  0
    2.1613    1.2733    0.0000 C   0  0  0  0  0  0
    1.3820   -2.3248    0.0001 O   0  0  0  0  0  0
   -1.7539    0.8582   -0.0001 H   0  0  0  0  0  0
   -0.5070    1.7688   -0.8943 H   0  0  0  0  0  0
   -0.5071    1.7689    0.8941 H   0  0  0  0  0  0
    3.6314   -3.3721   -0.0001 H   0  0  0  0  0  0
    6.1068   -3.4200   -0.0002 H   0  0  0  0  0  0
    7.4014   -1.2923   -0.0001 H   0  0  0  0  0  0
    6.2240    0.8788    0.0001 H   0  0  0  0  0  0
    4.1024    2.1730    0.0000 H   0  0  0  0  0  0
    1.6414    2.2240   -0.0001 H   0  0  0  0  0  0
    0.4424   -2.0865    0.0001 H   0  0  0  0  0  0
  1  2  1  0  0  0
  1 14  1  0  0  0
  1 15  1  0  0  0
  1 16  1  0  0  0
  2  3  1  0  0  0
  3 12  1  0  0  0
  3  4  2  0  0  0
  4  5  1  0  0  0
  4 13  1  0  0  0
  5 10  1  0  0  0
  5  6  2  0  0  0
  6  7  1  0  0  0
  6 17  1  0  0  0
  7  8  2  0  0  0
  7 18  1  0  0  0
  8  9  1  0  0  0
  8 19  1  0  0  0
  9 10  2  0  0  0
  9 20  1  0  0  0
 10 11  1  0  0  0
 11 12  2  0  0  0
 11 21  1  0  0  0
 12 22  1  0  0  0
 13 23  1  0  0  0
M  END
>  <i_m_Spin_multiplicity> (1)
1

>  <s_j_Task> (1)
Single Point

>  <s_j_QM_Method> (1)
DFT(b3lyp-d3)

>  <s_j_QM_Basis> (1)
cc-pvtz(-f)

>  <i_j_Number_of_canonical_orbitals> (1)
381

>  <i_j_Geometry_convergence_category> (1)
3

>  <r_j_Gas_Phase_Energy> (1)
-575.839652790777

>  <r_j_Final_Energy> (1)
-575.839652790777

>  <r_j_HOMO> (1)
-0.199680910528938

>  <r_j_LUMO> (1)
-0.0432800597141977

>  <r_j_Polarizability> (1)
138.064596195427

>  <r_j_QM_Dipole_(debye)> (1)
2.74172970946418

>  <r_j_QM_Dipole_X_(debye)> (1)
-1.8876356785951

>  <r_j_QM_Dipole_Y_(debye)> (1)
1.98844493269517

>  <r_j_QM_Dipole_Z_(debye)> (1)
-0.000307070429629141

>  <r_j_Lowest_Frequency_(cm-1)> (1)
67.074024369853

>  <r_j_Highest_Frequency_(cm-1)> (1)
3720.78664571244

>  <r_j_2nd_Lowest_Frequency_(cm-1)> (1)
130.389450984797

>  <i_j_Num_Negative_Frequencies> (1)
0

>  <r_j_Zero_Point_Energy_(kcal/mol)> (1)
115.358399402261

>  <r_j_Entropy_(cal/mol/K)_298.15K_1.00E+00atm> (1)
97.9272377395322

>  <r_j_Enthalpy_(kcal/mol)_298.15K_1.00E+00atm> (1)
7.02028953783214

>  <r_j_Free_Energy_(kcal/mol)_298.15K_1.00E+00atm> (1)
-22.1767163942094

>  <r_j_Internal_Energy_(kcal/mol)_298.15K_1.00E+00atm> (1)
6.42780394900487

>  <r_j_Heat_Capacity_(cal/mol/K)_298.15K_1.00E+00atm> (1)
41.8651875378029

>  <r_j_ln(Q)_298.15K_1.00E+00atm> (1)
37.4299676015825

>  <r_j_Total_Internal_Energy_(au)_298.15K_1.00E+00atm> (1)
-575.645574120775

>  <r_j_Total_Enthalpy_(au)_298.15K_1.00E+00atm> (1)
-575.644629934883

>  <r_j_Total_Free_Energy_(au)_298.15K_1.00E+00atm> (1)
-575.691158325812

>  <r_epik_Ionization_Penalty> (1)
  0.0033

>  <r_epik_Ionization_Penalty_Charging> (1)
  0.0000

>  <r_epik_Ionization_Penalty_Neutral> (1)
  0.0033

>  <r_epik_State_Penalty> (1)
  0.0023

>  <r_epik_Charging_Adjusted_Penalty> (1)
0.00232381

>  <i_epik_Tot_Q> (1)
0

>  <i_epik_Tot_abs_Q> (1)
0

>  <s_lp_Force_Field> (1)
S-OPLS

>  <r_lp_Energy> (1)
25.6737

>  <b_lp_Chiralities_Consistent> (1)
1

$$$$
