11005_Myristic acid
                    3D
 Schrodinger Suite 2021-3.
 43 42  0  0  1  0            999 V2000
   -6.4375    0.2601   -2.5491 C   0  0  0  0  0  0
   -4.9077    0.1892   -2.5344 C   0  0  0  0  0  0
   -4.2855    0.8233   -1.2844 C   0  0  0  0  0  0
   -2.7550    0.7462   -1.2655 C   0  0  0  0  0  0
   -2.1264    1.3630   -0.0088 C   0  0  0  0  0  0
   -0.5891    1.3540   -0.0026 C   0  0  0  0  0  0
    0.0363   -0.0468    0.0165 C   0  0  0  0  0  0
    1.5680   -0.0383    0.0804 C   0  0  0  0  0  0
    2.1779   -1.4447    0.0673 C   0  0  0  0  0  0
    3.7101   -1.4665    0.0980 C   0  0  0  0  0  0
    4.3009   -2.8820    0.0664 C   0  0  0  0  0  0
    5.8333   -2.9212    0.0765 C   0  0  0  0  0  0
    6.4207   -4.3312    0.0378 C   0  0  0  0  0  0
    7.9982   -4.3858    0.0483 C   0  0  0  0  0  0
    8.4755   -5.5448   -0.0104 O   0  0  0  0  0  0
    8.5816   -3.2730    0.1157 O   0  5  0  0  0  0
   -6.8546   -0.1998   -3.4515 H   0  0  0  0  0  0
   -6.7846    1.2994   -2.5130 H   0  0  0  0  0  0
   -6.8638   -0.2590   -1.6827 H   0  0  0  0  0  0
   -4.5878   -0.8593   -2.6032 H   0  0  0  0  0  0
   -4.5073    0.6863   -3.4285 H   0  0  0  0  0  0
   -4.6022    1.8742   -1.2132 H   0  0  0  0  0  0
   -4.6862    0.3263   -0.3888 H   0  0  0  0  0  0
   -2.4528   -0.3047   -1.3546 H   0  0  0  0  0  0
   -2.3538    1.2528   -2.1555 H   0  0  0  0  0  0
   -2.4813    2.3984    0.0920 H   0  0  0  0  0  0
   -2.4956    0.8279    0.8782 H   0  0  0  0  0  0
   -0.2204    1.9031   -0.8813 H   0  0  0  0  0  0
   -0.2330    1.9130    0.8735 H   0  0  0  0  0  0
   -0.3613   -0.6075    0.8756 H   0  0  0  0  0  0
   -0.2732   -0.6053   -0.8766 H   0  0  0  0  0  0
    1.9630    0.5371   -0.7695 H   0  0  0  0  0  0
    1.8954    0.4960    0.9841 H   0  0  0  0  0  0
    1.7891   -2.0149    0.9240 H   0  0  0  0  0  0
    1.8287   -1.9783   -0.8293 H   0  0  0  0  0  0
    4.0987   -0.8927   -0.7561 H   0  0  0  0  0  0
    4.0657   -0.9430    0.9975 H   0  0  0  0  0  0
    3.9121   -3.4512    0.9252 H   0  0  0  0  0  0
    3.9264   -3.4044   -0.8278 H   0  0  0  0  0  0
    6.2301   -2.3519   -0.7738 H   0  0  0  0  0  0
    6.2204   -2.4043    0.9637 H   0  0  0  0  0  0
    6.0574   -4.9212    0.8934 H   0  0  0  0  0  0
    6.0700   -4.8696   -0.8559 H   0  0  0  0  0  0
  1  2  1  0  0  0
  1 17  1  0  0  0
  1 18  1  0  0  0
  1 19  1  0  0  0
  2  3  1  0  0  0
  2 20  1  0  0  0
  2 21  1  0  0  0
  3  4  1  0  0  0
  3 22  1  0  0  0
  3 23  1  0  0  0
  4  5  1  0  0  0
  4 24  1  0  0  0
  4 25  1  0  0  0
  5  6  1  0  0  0
  5 26  1  0  0  0
  5 27  1  0  0  0
  6  7  1  0  0  0
  6 28  1  0  0  0
  6 29  1  0  0  0
  7  8  1  0  0  0
  7 30  1  0  0  0
  7 31  1  0  0  0
  8  9  1  0  0  0
  8 32  1  0  0  0
  8 33  1  0  0  0
  9 10  1  0  0  0
  9 34  1  0  0  0
  9 35  1  0  0  0
 10 11  1  0  0  0
 10 36  1  0  0  0
 10 37  1  0  0  0
 11 12  1  0  0  0
 11 38  1  0  0  0
 11 39  1  0  0  0
 12 13  1  0  0  0
 12 40  1  0  0  0
 12 41  1  0  0  0
 13 14  1  0  0  0
 13 42  1  0  0  0
 13 43  1  0  0  0
 14 15  2  0  0  0
 14 16  1  0  0  0
M  END
>  <i_m_Spin_multiplicity> (1)
1

>  <s_j_Task> (1)
Single Point

>  <s_j_QM_Method> (1)
DFT(b3lyp-d3)

>  <s_j_QM_Basis> (1)
6-31g**

>  <i_j_Number_of_canonical_orbitals> (1)
375

>  <i_j_Geometry_convergence_category> (1)
0

>  <r_j_Gas_Phase_Energy> (1)
-700.340722021201

>  <r_j_Final_Energy> (1)
-700.340722021201

>  <r_j_HOMO> (1)
-0.00389701327998138

>  <r_j_LUMO> (1)
0.136029075039646

>  <r_j_Polarizability> (1)
161.55314084335

>  <r_j_QM_Dipole_(debye)> (1)
32.762844665389

>  <r_j_QM_Dipole_X_(debye)> (1)
-29.7845598751067

>  <r_j_QM_Dipole_Y_(debye)> (1)
13.4500558440561

>  <r_j_QM_Dipole_Z_(debye)> (1)
-2.31947869280398

>  <r_j_Lowest_Frequency_(cm-1)> (1)
-18.6499585573047

>  <r_j_Highest_Frequency_(cm-1)> (1)
3103.29421511378

>  <r_j_2nd_Lowest_Frequency_(cm-1)> (1)
19.0622077507993

>  <i_j_Num_Negative_Frequencies> (1)
1

>  <r_j_Zero_Point_Energy_(kcal/mol)> (1)
245.986921335282

>  <r_j_Entropy_(cal/mol/K)_298.15K_1.00E+00atm> (1)
139.493898781223

>  <r_j_Enthalpy_(kcal/mol)_298.15K_1.00E+00atm> (1)
12.2324077957513

>  <r_j_Free_Energy_(kcal/mol)_298.15K_1.00E+00atm> (1)
-29.3576981258703

>  <r_j_Internal_Energy_(kcal/mol)_298.15K_1.00E+00atm> (1)
11.639922206924

>  <r_j_Heat_Capacity_(cal/mol/K)_298.15K_1.00E+00atm> (1)
68.5508991228517

>  <r_j_ln(Q)_298.15K_1.00E+00atm> (1)
49.5500627854577

>  <r_j_Total_Internal_Energy_(au)_298.15K_1.00E+00atm> (1)
-699.930167510299

>  <r_j_Total_Enthalpy_(au)_298.15K_1.00E+00atm> (1)
-699.929223324407

>  <r_j_Total_Free_Energy_(au)_298.15K_1.00E+00atm> (1)
-699.995501377425

>  <r_epik_Ionization_Penalty> (1)
  0.0049

>  <r_epik_Ionization_Penalty_Charging> (1)
  0.0049

>  <r_epik_Ionization_Penalty_Neutral> (1)
  0.0000

>  <r_epik_State_Penalty> (1)
  0.0035

>  <r_epik_Charging_Adjusted_Penalty> (1)
0.00839777765143097

>  <i_epik_Tot_Q> (1)
-1

>  <i_epik_Tot_abs_Q> (1)
1

>  <s_lp_Force_Field> (1)
S-OPLS

>  <r_lp_Energy> (1)
9.772082

>  <b_lp_Chiralities_Consistent> (1)
1

$$$$
