11142_B-phellandrene
                    3D
 Schrodinger Suite 2021-3.
 26 26  0  0  1  0            999 V2000
   -0.1096    0.1624    0.0855 C   0  0  0  0  0  0
    1.4196    0.0137    0.0172 C   0  0  0  0  0  0
    2.0425    0.6206    1.2845 C   0  0  0  0  0  0
    2.0010    0.6436   -1.2815 C   0  0  0  0  0  0
    3.5400    0.7314   -1.2791 C   0  0  0  0  0  0
    4.0835    1.1696   -2.6477 C   0  0  0  0  0  0
    3.6541    0.2202   -3.7445 C   0  0  0  0  0  0
    4.4385   -0.1011   -4.7855 C   0  0  0  0  0  0
    2.2978   -0.3092   -3.6028 C   0  0  0  0  0  0
    1.5360   -0.0990   -2.5161 C   0  0  0  0  0  0
   -0.3911    1.2223    0.1138 H   0  0  0  0  0  0
   -0.5039   -0.3090    0.9917 H   0  0  0  0  0  0
   -0.6209   -0.2933   -0.7669 H   0  0  0  0  0  0
    1.6630   -1.0590   -0.0028 H   0  0  0  0  0  0
    1.9139    1.7103    1.2968 H   0  0  0  0  0  0
    3.1113    0.4071    1.3670 H   0  0  0  0  0  0
    1.5568    0.2207    2.1807 H   0  0  0  0  0  0
    1.6065    1.6741   -1.3320 H   0  0  0  0  0  0
    3.8808    1.4317   -0.5111 H   0  0  0  0  0  0
    3.9514   -0.2543   -1.0243 H   0  0  0  0  0  0
    3.6867    2.1700   -2.8758 H   0  0  0  0  0  0
    5.1744    1.2608   -2.6224 H   0  0  0  0  0  0
    5.4466    0.2903   -4.8831 H   0  0  0  0  0  0
    4.0911   -0.7644   -5.5732 H   0  0  0  0  0  0
    1.9018   -0.8940   -4.4313 H   0  0  0  0  0  0
    0.5269   -0.5023   -2.5071 H   0  0  0  0  0  0
  1  2  1  0  0  0
  1 11  1  0  0  0
  1 12  1  0  0  0
  1 13  1  0  0  0
  2  3  1  0  0  0
  2  4  1  0  0  0
  2 14  1  0  0  0
  3 15  1  0  0  0
  3 16  1  0  0  0
  3 17  1  0  0  0
  4 10  1  0  0  0
  4  5  1  0  0  0
  4 18  1  0  0  0
  5  6  1  0  0  0
  5 19  1  0  0  0
  5 20  1  0  0  0
  6  7  1  0  0  0
  6 21  1  0  0  0
  6 22  1  0  0  0
  7  8  2  0  0  0
  7  9  1  0  0  0
  8 23  1  0  0  0
  8 24  1  0  0  0
  9 10  2  0  0  0
  9 25  1  0  0  0
 10 26  1  0  0  0
M  END
>  <i_m_Spin_multiplicity> (1)
1

>  <s_j_Task> (1)
Single Point

>  <s_j_QM_Method> (1)
DFT(b3lyp-d3)

>  <s_j_QM_Basis> (1)
cc-pvtz(-f)

>  <i_j_Number_of_canonical_orbitals> (1)
369

>  <i_j_Geometry_convergence_category> (1)
3

>  <r_j_Gas_Phase_Energy> (1)
-390.829143034401

>  <r_j_Final_Energy> (1)
-390.829143034401

>  <r_j_HOMO> (1)
-0.206320305715276

>  <r_j_LUMO> (1)
-0.0100619998803875

>  <r_j_Polarizability> (1)
121.041810670418

>  <r_j_QM_Dipole_(debye)> (1)
0.809362858934072

>  <r_j_QM_Dipole_X_(debye)> (1)
-0.192532685021004

>  <r_j_QM_Dipole_Y_(debye)> (1)
0.247261262209115

>  <r_j_QM_Dipole_Z_(debye)> (1)
0.746231378884119

>  <r_j_Lowest_Frequency_(cm-1)> (1)
85.9485799636641

>  <r_j_Highest_Frequency_(cm-1)> (1)
3173.05330176266

>  <r_j_2nd_Lowest_Frequency_(cm-1)> (1)
96.943338977526

>  <i_j_Num_Negative_Frequencies> (1)
0

>  <r_j_Zero_Point_Energy_(kcal/mol)> (1)
147.457632018921

>  <r_j_Entropy_(cal/mol/K)_298.15K_1.00E+00atm> (1)
95.0469573510638

>  <r_j_Enthalpy_(kcal/mol)_298.15K_1.00E+00atm> (1)
6.79733032938566

>  <r_j_Free_Energy_(kcal/mol)_298.15K_1.00E+00atm> (1)
-21.540920004834

>  <r_j_Internal_Energy_(kcal/mol)_298.15K_1.00E+00atm> (1)
6.20484474055839

>  <r_j_Heat_Capacity_(cal/mol/K)_298.15K_1.00E+00atm> (1)
40.2130420992403

>  <r_j_ln(Q)_298.15K_1.00E+00atm> (1)
36.3568674260426

>  <r_j_Total_Internal_Energy_(au)_298.15K_1.00E+00atm> (1)
-390.58426628894

>  <r_j_Total_Enthalpy_(au)_298.15K_1.00E+00atm> (1)
-390.583322103048

>  <r_j_Total_Free_Energy_(au)_298.15K_1.00E+00atm> (1)
-390.628481979813

>  <r_lp_tautomer_probability> (1)
1

>  <r_epik_Ionization_Penalty> (1)
  0.0000

>  <r_epik_Ionization_Penalty_Charging> (1)
  0.0000

>  <r_epik_Ionization_Penalty_Neutral> (1)
  0.0000

>  <r_epik_State_Penalty> (1)
  0.0000

>  <r_epik_Charging_Adjusted_Penalty> (1)
0

>  <i_epik_Tot_Q> (1)
0

>  <i_epik_Tot_abs_Q> (1)
0

>  <s_lp_Force_Field> (1)
S-OPLS

>  <r_lp_Energy> (1)
5.86255

>  <b_lp_Chiralities_Consistent> (1)
1

$$$$
