11169_Octamethylcyclotetrasiloxane
                    3D
 Schrodinger Suite 2021-3.
 40 40  0  0  1  0            999 V2000
   -0.4334    0.8306    0.0262 C   0  0  0  0  0  0
    1.3374    0.2168    0.0834 Si  0  0  0  0  0  0
    2.0501    0.7629    1.4774 O   0  0  0  0  0  0
    2.6628    2.1829    2.0780 Si  0  0  0  0  0  0
    1.9135    3.4611    1.3231 O   0  0  0  0  0  0
    2.0740    4.4009   -0.0342 Si  0  0  0  0  0  0
    2.6490    3.4724   -1.2801 O   0  0  0  0  0  0
    2.3965    2.1205   -2.2057 Si  0  0  0  0  0  0
    2.1638    0.8053   -1.2285 O   0  0  0  0  0  0
    0.8714    2.3777   -3.2646 C   0  0  0  0  0  0
    3.9440    1.8213   -3.2059 C   0  0  0  0  0  0
    0.3761    5.0669   -0.4538 C   0  0  0  0  0  0
    3.3272    5.7521    0.2789 C   0  0  0  0  0  0
    2.2481    2.2685    3.8963 C   0  0  0  0  0  0
    4.5028    2.2403    1.7294 C   0  0  0  0  0  0
    1.4745   -1.6440    0.0596 C   0  0  0  0  0  0
   -0.4554    1.9205    0.1307 H   0  0  0  0  0  0
   -1.0245    0.4094    0.8462 H   0  0  0  0  0  0
   -0.9221    0.5660   -0.9175 H   0  0  0  0  0  0
   -0.0122    2.5365   -2.6374 H   0  0  0  0  0  0
    0.6792    1.5055   -3.8985 H   0  0  0  0  0  0
    0.9823    3.2521   -3.9143 H   0  0  0  0  0  0
    4.8016    1.6781   -2.5406 H   0  0  0  0  0  0
    4.1621    2.6704   -3.8615 H   0  0  0  0  0  0
    3.8452    0.9248   -3.8266 H   0  0  0  0  0  0
   -0.3289    4.2493   -0.6367 H   0  0  0  0  0  0
    0.4080    5.6897   -1.3539 H   0  0  0  0  0  0
   -0.0223    5.6730    0.3665 H   0  0  0  0  0  0
    4.3050    5.3177    0.5106 H   0  0  0  0  0  0
    3.0257    6.3796    1.1242 H   0  0  0  0  0  0
    3.4452    6.3955   -0.5991 H   0  0  0  0  0  0
    1.1627    2.2635    4.0377 H   0  0  0  0  0  0
    2.6447    3.1825    4.3508 H   0  0  0  0  0  0
    2.6636    1.4104    4.4342 H   0  0  0  0  0  0
    4.6791    2.2177    0.6488 H   0  0  0  0  0  0
    5.0177    1.3821    2.1731 H   0  0  0  0  0  0
    4.9578    3.1539    2.1274 H   0  0  0  0  0  0
    2.5261   -1.9471    0.0635 H   0  0  0  0  0  0
    1.0046   -2.0628   -0.8365 H   0  0  0  0  0  0
    0.9911   -2.0845    0.9375 H   0  0  0  0  0  0
  1  2  1  0  0  0
  1 17  1  0  0  0
  1 18  1  0  0  0
  1 19  1  0  0  0
  2  9  1  0  0  0
  2  3  1  0  0  0
  2 16  1  0  0  0
  3  4  1  0  0  0
  4  5  1  0  0  0
  4 14  1  0  0  0
  4 15  1  0  0  0
  5  6  1  0  0  0
  6  7  1  0  0  0
  6 12  1  0  0  0
  6 13  1  0  0  0
  7  8  1  0  0  0
  8  9  1  0  0  0
  8 10  1  0  0  0
  8 11  1  0  0  0
 10 20  1  0  0  0
 10 21  1  0  0  0
 10 22  1  0  0  0
 11 23  1  0  0  0
 11 24  1  0  0  0
 11 25  1  0  0  0
 12 26  1  0  0  0
 12 27  1  0  0  0
 12 28  1  0  0  0
 13 29  1  0  0  0
 13 30  1  0  0  0
 13 31  1  0  0  0
 14 32  1  0  0  0
 14 33  1  0  0  0
 14 34  1  0  0  0
 15 35  1  0  0  0
 15 36  1  0  0  0
 15 37  1  0  0  0
 16 38  1  0  0  0
 16 39  1  0  0  0
 16 40  1  0  0  0
M  END
> <i_m_Spin_multiplicity>
1

> <s_j_Task>
Single Point

> <s_j_QM_Method>
DFT(b3lyp-d3)

> <s_j_QM_Basis>
cc-pvtz(-f)

> <i_j_Number_of_canonical_orbitals>
600

> <i_j_Geometry_convergence_category>
3

> <r_j_Gas_Phase_Energy>
-1779.09092150347

> <r_j_Final_Energy>
-1779.09092150347

> <r_j_HOMO>
-0.255520268416841

> <r_j_LUMO>
0.0213723034448562

> <r_j_Polarizability>
189.700794949725

> <r_j_QM_Dipole_(debye)>
0.771978004231204

> <r_j_QM_Dipole_X_(debye)>
-0.303395305328078

> <r_j_QM_Dipole_Y_(debye)>
0.532292776546894

> <r_j_QM_Dipole_Z_(debye)>
-0.469644256600326

> <r_j_Lowest_Frequency_(cm-1)>
41.2248857863995

> <r_j_Highest_Frequency_(cm-1)>
3069.32376780212

> <r_j_2nd_Lowest_Frequency_(cm-1)>
51.7461260176471

> <i_j_Num_Negative_Frequencies>
0

> <r_j_Zero_Point_Energy_(kcal/mol)>
200.006113725122

> <r_j_Entropy_(cal/mol/K)_298.15K_1.00E+00atm>
156.385340019318

> <r_j_Enthalpy_(kcal/mol)_298.15K_1.00E+00atm>
15.7704523536719

> <r_j_Free_Energy_(kcal/mol)_298.15K_1.00E+00atm>
-30.8558367730876

> <r_j_Internal_Energy_(kcal/mol)_298.15K_1.00E+00atm>
15.1779667648447

> <r_j_Heat_Capacity_(cal/mol/K)_298.15K_1.00E+00atm>
91.3010418415192

> <r_j_ln(Q)_298.15K_1.00E+00atm>
52.07862833282

> <r_j_Total_Internal_Energy_(au)_298.15K_1.00E+00atm>
-1778.74800384123

> <r_j_Total_Enthalpy_(au)_298.15K_1.00E+00atm>
-1778.74705965533

> <r_j_Total_Free_Energy_(au)_298.15K_1.00E+00atm>
-1778.8213633772

> <r_lp_tautomer_probability>
1

> <r_epik_Ionization_Penalty>
  0.0000

> <r_epik_Ionization_Penalty_Charging>
  0.0000

> <r_epik_Ionization_Penalty_Neutral>
  0.0000

> <r_epik_State_Penalty>
  0.0000

> <r_epik_Charging_Adjusted_Penalty>
0

> <i_epik_Tot_Q>
0

> <i_epik_Tot_abs_Q>
0

> <s_lp_Force_Field>
S-OPLS

> <r_lp_Energy>
-43.260669

> <b_lp_Chiralities_Consistent>
1

$$$$
