11215_2,3,3-trimethylpentane
                    3D
 Schrodinger Suite 2021-3.
 26 25  0  0  1  0            999 V2000
   -2.1714   -0.7662    1.3268 C   0  0  0  0  0  0
   -0.6395   -0.7139    1.2471 C   0  0  0  0  0  0
   -0.0428   -0.0011    0.0042 C   0  0  0  0  0  0
   -0.5217   -0.6988   -1.2878 C   0  0  0  0  0  0
   -0.5223    1.4663   -0.0464 C   0  0  0  0  0  0
    1.5282   -0.0236    0.0433 C   0  0  0  0  0  0
    2.1410   -1.4339   -0.0259 C   0  0  0  0  0  0
    2.1412    0.7294    1.2376 C   0  0  0  0  0  0
   -2.4859   -1.2871    2.2374 H   0  0  0  0  0  0
   -2.6078   -1.3019    0.4781 H   0  0  0  0  0  0
   -2.6148    0.2340    1.3543 H   0  0  0  0  0  0
   -0.2657   -0.2195    2.1517 H   0  0  0  0  0  0
   -0.2593   -1.7420    1.2816 H   0  0  0  0  0  0
    0.0023   -0.2986   -2.1636 H   0  0  0  0  0  0
   -1.5921   -0.5415   -1.4491 H   0  0  0  0  0  0
   -0.3513   -1.7792   -1.2594 H   0  0  0  0  0  0
    0.0007    2.0198   -0.8349 H   0  0  0  0  0  0
   -0.3515    1.9881    0.9000 H   0  0  0  0  0  0
   -1.5929    1.5255   -0.2629 H   0  0  0  0  0  0
    1.8460    0.5077   -0.8669 H   0  0  0  0  0  0
    1.9025   -2.0224    0.8666 H   0  0  0  0  0  0
    3.2325   -1.3654   -0.0838 H   0  0  0  0  0  0
    1.8029   -1.9960   -0.8999 H   0  0  0  0  0  0
    1.9071    0.2381    2.1882 H   0  0  0  0  0  0
    1.7995    1.7655    1.3012 H   0  0  0  0  0  0
    3.2324    0.7505    1.1468 H   0  0  0  0  0  0
  1  2  1  0  0  0
  1  9  1  0  0  0
  1 10  1  0  0  0
  1 11  1  0  0  0
  2  3  1  0  0  0
  2 12  1  0  0  0
  2 13  1  0  0  0
  3  4  1  0  0  0
  3  5  1  0  0  0
  3  6  1  0  0  0
  4 14  1  0  0  0
  4 15  1  0  0  0
  4 16  1  0  0  0
  5 17  1  0  0  0
  5 18  1  0  0  0
  5 19  1  0  0  0
  6  7  1  0  0  0
  6  8  1  0  0  0
  6 20  1  0  0  0
  7 21  1  0  0  0
  7 22  1  0  0  0
  7 23  1  0  0  0
  8 24  1  0  0  0
  8 25  1  0  0  0
  8 26  1  0  0  0
M  END
>  <i_m_Spin_multiplicity> (1)
1

>  <s_j_Task> (1)
Single Point

>  <s_j_QM_Method> (1)
DFT(b3lyp-d3)

>  <s_j_QM_Basis> (1)
cc-pvtz(-f)

>  <i_j_Number_of_canonical_orbitals> (1)
343

>  <i_j_Geometry_convergence_category> (1)
3

>  <r_j_Gas_Phase_Energy> (1)
-315.837493983035

>  <r_j_Final_Energy> (1)
-315.837493983035

>  <r_j_HOMO> (1)
-0.302312518367138

>  <r_j_LUMO> (1)
0.024120583305019

>  <r_j_Polarizability> (1)
97.1435389501381

>  <r_j_QM_Dipole_(debye)> (1)
0.0445337513807118

>  <r_j_QM_Dipole_X_(debye)> (1)
0.0433071907715431

>  <r_j_QM_Dipole_Y_(debye)> (1)
0.00533666564914647

>  <r_j_QM_Dipole_Z_(debye)> (1)
-0.00890293430647681

>  <r_j_Lowest_Frequency_(cm-1)> (1)
95.3703002978931

>  <r_j_Highest_Frequency_(cm-1)> (1)
3069.52862286471

>  <r_j_2nd_Lowest_Frequency_(cm-1)> (1)
129.718837467542

>  <i_j_Num_Negative_Frequencies> (1)
0

>  <r_j_Zero_Point_Energy_(kcal/mol)> (1)
153.60020884172

>  <r_j_Entropy_(cal/mol/K)_298.15K_1.00E+00atm> (1)
93.709020516954

>  <r_j_Enthalpy_(kcal/mol)_298.15K_1.00E+00atm> (1)
6.91825397459534

>  <r_j_Free_Energy_(kcal/mol)_298.15K_1.00E+00atm> (1)
-21.0210904925345

>  <r_j_Internal_Energy_(kcal/mol)_298.15K_1.00E+00atm> (1)
6.32576838576806

>  <r_j_Heat_Capacity_(cal/mol/K)_298.15K_1.00E+00atm> (1)
40.0371104367896

>  <r_j_ln(Q)_298.15K_1.00E+00atm> (1)
35.4794966982103

>  <r_j_Total_Internal_Energy_(au)_298.15K_1.00E+00atm> (1)
-315.582635714159

>  <r_j_Total_Enthalpy_(au)_298.15K_1.00E+00atm> (1)
-315.581691528267

>  <r_j_Total_Free_Energy_(au)_298.15K_1.00E+00atm> (1)
-315.626215708064

>  <r_lp_tautomer_probability> (1)
1

>  <r_epik_Ionization_Penalty> (1)
  0.0000

>  <r_epik_Ionization_Penalty_Charging> (1)
  0.0000

>  <r_epik_Ionization_Penalty_Neutral> (1)
  0.0000

>  <r_epik_State_Penalty> (1)
  0.0000

>  <r_epik_Charging_Adjusted_Penalty> (1)
0

>  <i_epik_Tot_Q> (1)
0

>  <i_epik_Tot_abs_Q> (1)
0

>  <s_lp_Force_Field> (1)
S-OPLS

>  <r_lp_Energy> (1)
10.0014

>  <b_lp_Chiralities_Consistent> (1)
1

$$$$
