112221_C10-16 Alkenes
                    3D
 Schrodinger Suite 2021-3.
 28 27  0  0  1  0            999 V2000
   -4.3075    2.3643    0.7843 C   0  0  0  0  0  0
   -2.7906    2.1678    0.8496 C   0  0  0  0  0  0
   -2.2452    1.3269   -0.3210 C   0  0  0  0  0  0
   -0.7509    1.1713   -0.2667 C   0  0  0  0  0  0
   -0.0981    0.0193   -0.1039 C   0  0  0  0  0  0
    1.4008   -0.1214    0.0171 C   0  0  0  0  0  0
    1.7981   -0.7020    1.3537 C   0  0  0  0  0  0
    2.5184   -0.0717    2.2831 C   0  0  0  0  0  0
    2.9078   -0.6403    3.6202 C   0  0  0  0  0  0
    4.4325   -0.7349    3.7981 C   0  0  0  0  0  0
   -4.6710    2.9629    1.6260 H   0  0  0  0  0  0
   -4.8311    1.4017    0.8089 H   0  0  0  0  0  0
   -4.6003    2.8753   -0.1403 H   0  0  0  0  0  0
   -2.2902    3.1455    0.8541 H   0  0  0  0  0  0
   -2.5147    1.6802    1.7929 H   0  0  0  0  0  0
   -2.7262    0.3400   -0.3170 H   0  0  0  0  0  0
   -2.5368    1.8114   -1.2651 H   0  0  0  0  0  0
   -0.1744    2.0964   -0.3354 H   0  0  0  0  0  0
   -0.6710   -0.9061   -0.0199 H   0  0  0  0  0  0
    1.7689   -0.7805   -0.7848 H   0  0  0  0  0  0
    1.8819    0.8530   -0.1275 H   0  0  0  0  0  0
    1.4323   -1.7092    1.5620 H   0  0  0  0  0  0
    2.8795    0.9377    2.0737 H   0  0  0  0  0  0
    2.4973   -0.0055    4.4189 H   0  0  0  0  0  0
    2.4557   -1.6314    3.7487 H   0  0  0  0  0  0
    4.6934   -1.1174    4.7903 H   0  0  0  0  0  0
    4.9033    0.2481    3.6837 H   0  0  0  0  0  0
    4.8707   -1.4012    3.0480 H   0  0  0  0  0  0
  1  2  1  0  0  0
  1 11  1  0  0  0
  1 12  1  0  0  0
  1 13  1  0  0  0
  2  3  1  0  0  0
  2 14  1  0  0  0
  2 15  1  0  0  0
  3  4  1  0  0  0
  3 16  1  0  0  0
  3 17  1  0  0  0
  4  5  2  0  0  0
  4 18  1  0  0  0
  5  6  1  0  0  0
  5 19  1  0  0  0
  6  7  1  0  0  0
  6 20  1  0  0  0
  6 21  1  0  0  0
  7  8  2  0  0  0
  7 22  1  0  0  0
  8  9  1  0  0  0
  8 23  1  0  0  0
  9 10  1  0  0  0
  9 24  1  0  0  0
  9 25  1  0  0  0
 10 26  1  0  0  0
 10 27  1  0  0  0
 10 28  1  0  0  0
M  END
>  <i_m_Spin_multiplicity> (1)
1

>  <s_j_Task> (1)
Single Point

>  <s_j_QM_Method> (1)
DFT(b3lyp-d3)

>  <s_j_QM_Basis> (1)
cc-pvtz(-f)

>  <i_j_Number_of_canonical_orbitals> (1)
387

>  <i_j_Geometry_convergence_category> (1)
3

>  <r_j_Gas_Phase_Energy> (1)
-392.030618321325

>  <r_j_Final_Energy> (1)
-392.030618321325

>  <r_j_HOMO> (1)
-0.242546807118655

>  <r_j_LUMO> (1)
-0.00471822174506458

>  <r_j_Polarizability> (1)
126.373968163611

>  <r_j_QM_Dipole_(debye)> (1)
0.190911732056372

>  <r_j_QM_Dipole_X_(debye)> (1)
-0.0438197295046659

>  <r_j_QM_Dipole_Y_(debye)> (1)
0.0509589145701228

>  <r_j_QM_Dipole_Z_(debye)> (1)
0.178690541911812

>  <r_j_Lowest_Frequency_(cm-1)> (1)
45.9046944863261

>  <r_j_Highest_Frequency_(cm-1)> (1)
3076.17972595867

>  <r_j_2nd_Lowest_Frequency_(cm-1)> (1)
96.1244424602061

>  <i_j_Num_Negative_Frequencies> (1)
0

>  <r_j_Zero_Point_Energy_(kcal/mol)> (1)
159.983193759999

>  <r_j_Entropy_(cal/mol/K)_298.15K_1.00E+00atm> (1)
106.419474564994

>  <r_j_Enthalpy_(kcal/mol)_298.15K_1.00E+00atm> (1)
8.11173147715661

>  <r_j_Free_Energy_(kcal/mol)_298.15K_1.00E+00atm> (1)
-23.6172348643963

>  <r_j_Internal_Energy_(kcal/mol)_298.15K_1.00E+00atm> (1)
7.51924588832934

>  <r_j_Heat_Capacity_(cal/mol/K)_298.15K_1.00E+00atm> (1)
44.8142595440919

>  <r_j_ln(Q)_298.15K_1.00E+00atm> (1)
39.8612815395943

>  <r_j_Total_Internal_Energy_(au)_298.15K_1.00E+00atm> (1)
-391.763686190965

>  <r_j_Total_Enthalpy_(au)_298.15K_1.00E+00atm> (1)
-391.762742005073

>  <r_j_Total_Free_Energy_(au)_298.15K_1.00E+00atm> (1)
-391.813305331777

>  <r_lp_tautomer_probability> (1)
1

>  <r_epik_Ionization_Penalty> (1)
  0.0000

>  <r_epik_Ionization_Penalty_Charging> (1)
  0.0000

>  <r_epik_Ionization_Penalty_Neutral> (1)
  0.0000

>  <r_epik_State_Penalty> (1)
  0.0000

>  <r_epik_Charging_Adjusted_Penalty> (1)
0

>  <i_epik_Tot_Q> (1)
0

>  <i_epik_Tot_abs_Q> (1)
0

>  <s_lp_Force_Field> (1)
S-OPLS

>  <r_lp_Energy> (1)
-4.45036

>  <b_lp_Chiralities_Consistent> (1)
1

$$$$
