11240_2-methyl-1-butene
                    3D
 Schrodinger Suite 2021-3.
 15 14  0  0  1  0            999 V2000
   -0.4753    1.5167   -0.1458 C   0  0  0  0  0  0
    0.0109    0.0830    0.1305 C   0  0  0  0  0  0
    1.5164   -0.0695    0.0698 C   0  0  0  0  0  0
    2.2355   -0.3748    1.1549 C   0  0  0  0  0  0
    2.1597    0.1396   -1.2799 C   0  0  0  0  0  0
   -1.5649    1.5809   -0.0616 H   0  0  0  0  0  0
   -0.2022    1.8507   -1.1516 H   0  0  0  0  0  0
   -0.0369    2.2187    0.5710 H   0  0  0  0  0  0
   -0.3486   -0.2356    1.1154 H   0  0  0  0  0  0
   -0.4484   -0.5938   -0.6048 H   0  0  0  0  0  0
    1.7681   -0.5271    2.1241 H   0  0  0  0  0  0
    3.3161   -0.4821    1.1137 H   0  0  0  0  0  0
    1.7183   -0.5299   -2.0297 H   0  0  0  0  0  0
    3.2370   -0.0442   -1.2491 H   0  0  0  0  0  0
    2.0034    1.1620   -1.6446 H   0  0  0  0  0  0
  1  2  1  0  0  0
  1  6  1  0  0  0
  1  7  1  0  0  0
  1  8  1  0  0  0
  2  3  1  0  0  0
  2  9  1  0  0  0
  2 10  1  0  0  0
  3  4  2  0  0  0
  3  5  1  0  0  0
  4 11  1  0  0  0
  4 12  1  0  0  0
  5 13  1  0  0  0
  5 14  1  0  0  0
  5 15  1  0  0  0
M  END
>  <i_m_Spin_multiplicity> (1)
1

>  <s_j_Task> (1)
Single Point

>  <s_j_QM_Method> (1)
DFT(b3lyp-d3)

>  <s_j_QM_Basis> (1)
cc-pvtz(-f)

>  <i_j_Number_of_canonical_orbitals> (1)
203

>  <i_j_Geometry_convergence_category> (1)
0

>  <r_j_Gas_Phase_Energy> (1)
-196.618977013528

>  <r_j_Final_Energy> (1)
-196.618977013528

>  <r_j_HOMO> (1)
-0.250583431762177

>  <r_j_LUMO> (1)
0.00946470019642691

>  <r_j_Polarizability> (1)
61.6748331282277

>  <r_j_QM_Dipole_(debye)> (1)
0.538035476819606

>  <r_j_QM_Dipole_X_(debye)> (1)
-0.307584200694127

>  <r_j_QM_Dipole_Y_(debye)> (1)
0.138470786147723

>  <r_j_QM_Dipole_Z_(debye)> (1)
-0.419165808700433

>  <r_j_Lowest_Frequency_(cm-1)> (1)
121.280841612814

>  <r_j_Highest_Frequency_(cm-1)> (1)
3165.02924941951

>  <r_j_2nd_Lowest_Frequency_(cm-1)> (1)
253.771704824733

>  <i_j_Num_Negative_Frequencies> (1)
0

>  <r_j_Zero_Point_Energy_(kcal/mol)> (1)
85.5130426477401

>  <r_j_Entropy_(cal/mol/K)_298.15K_1.00E+00atm> (1)
75.9330456533389

>  <r_j_Enthalpy_(kcal/mol)_298.15K_1.00E+00atm> (1)
4.4724474509739

>  <r_j_Free_Energy_(kcal/mol)_298.15K_1.00E+00atm> (1)
-18.1669901105691

>  <r_j_Internal_Energy_(kcal/mol)_298.15K_1.00E+00atm> (1)
3.87996186214662

>  <r_j_Heat_Capacity_(cal/mol/K)_298.15K_1.00E+00atm> (1)
22.5631185545612

>  <r_j_ln(Q)_298.15K_1.00E+00atm> (1)
30.6623324738203

>  <r_j_Total_Internal_Energy_(au)_298.15K_1.00E+00atm> (1)
-196.476520192104

>  <r_j_Total_Enthalpy_(au)_298.15K_1.00E+00atm> (1)
-196.475576006211

>  <r_j_Total_Free_Energy_(au)_298.15K_1.00E+00atm> (1)
-196.51165424669

>  <r_lp_tautomer_probability> (1)
1

>  <r_epik_Ionization_Penalty> (1)
  0.0000

>  <r_epik_Ionization_Penalty_Charging> (1)
  0.0000

>  <r_epik_Ionization_Penalty_Neutral> (1)
  0.0000

>  <r_epik_State_Penalty> (1)
  0.0000

>  <r_epik_Charging_Adjusted_Penalty> (1)
0

>  <i_epik_Tot_Q> (1)
0

>  <i_epik_Tot_abs_Q> (1)
0

>  <s_lp_Force_Field> (1)
S-OPLS

>  <r_lp_Energy> (1)
-2.40118

>  <b_lp_Chiralities_Consistent> (1)
1

$$$$
