11250_2,3-dimethyl-2-butene
                    3D
 Schrodinger Suite 2021-3.
 18 17  0  0  1  0            999 V2000
   -0.0169   -0.0017    0.0000 C   0  0  0  0  0  0
    1.4983    0.0029    0.0000 C   0  0  0  0  0  0
    2.1938   -1.1509    0.0000 C   0  0  0  0  0  0
    3.7091   -1.1464    0.0000 C   0  0  0  0  0  0
    1.4823   -2.4888    0.0000 C   0  0  0  0  0  0
    2.2098    1.3406    0.0000 C   0  0  0  0  0  0
   -0.4268    1.0118   -0.0001 H   0  0  0  0  0  0
   -0.4226   -0.5206    0.8785 H   0  0  0  0  0  0
   -0.4226   -0.5208   -0.8784 H   0  0  0  0  0  0
    4.1189   -2.1599    0.0000 H   0  0  0  0  0  0
    4.1148   -0.6274    0.8785 H   0  0  0  0  0  0
    4.1148   -0.6274   -0.8785 H   0  0  0  0  0  0
    2.1871   -3.3244   -0.0002 H   0  0  0  0  0  0
    0.8338   -2.6052   -0.8784 H   0  0  0  0  0  0
    0.8340   -2.6053    0.8785 H   0  0  0  0  0  0
    1.5051    2.1762    0.0001 H   0  0  0  0  0  0
    2.8582    1.4570   -0.8785 H   0  0  0  0  0  0
    2.8583    1.4569    0.8785 H   0  0  0  0  0  0
  1  2  1  0  0  0
  1  7  1  0  0  0
  1  8  1  0  0  0
  1  9  1  0  0  0
  2  3  2  0  0  0
  2  6  1  0  0  0
  3  4  1  0  0  0
  3  5  1  0  0  0
  4 10  1  0  0  0
  4 11  1  0  0  0
  4 12  1  0  0  0
  5 13  1  0  0  0
  5 14  1  0  0  0
  5 15  1  0  0  0
  6 16  1  0  0  0
  6 17  1  0  0  0
  6 18  1  0  0  0
M  END
>  <i_m_Spin_multiplicity> (1)
1

>  <s_j_Task> (1)
Single Point

>  <s_j_QM_Method> (1)
DFT(b3lyp-d3)

>  <s_j_QM_Basis> (1)
cc-pvtz(-f)

>  <i_j_Number_of_canonical_orbitals> (1)
243

>  <i_j_Geometry_convergence_category> (1)
0

>  <r_j_Gas_Phase_Energy> (1)
-235.945820065382

>  <r_j_Final_Energy> (1)
-235.945820065382

>  <r_j_HOMO> (1)
-0.222214483497087

>  <r_j_LUMO> (1)
0.0148376947788372

>  <r_j_Polarizability> (1)
73.6059816993883

>  <r_j_QM_Dipole_(debye)> (1)
0.00156114871021519

>  <r_j_QM_Dipole_X_(debye)> (1)
-0.000877374135509356

>  <r_j_QM_Dipole_Y_(debye)> (1)
0.00129127840595912

>  <r_j_QM_Dipole_Z_(debye)> (1)
7.02989794990985e-09

>  <r_j_Lowest_Frequency_(cm-1)> (1)
156.06678923827

>  <r_j_Highest_Frequency_(cm-1)> (1)
3062.89834834413

>  <r_j_2nd_Lowest_Frequency_(cm-1)> (1)
178.590803919124

>  <i_j_Num_Negative_Frequencies> (1)
0

>  <r_j_Zero_Point_Energy_(kcal/mol)> (1)
102.127421113004

>  <r_j_Entropy_(cal/mol/K)_298.15K_1.00E+00atm> (1)
81.8895317426357

>  <r_j_Enthalpy_(kcal/mol)_298.15K_1.00E+00atm> (1)
5.6638814056814

>  <r_j_Free_Energy_(kcal/mol)_298.15K_1.00E+00atm> (1)
-18.7514824833854

>  <r_j_Internal_Energy_(kcal/mol)_298.15K_1.00E+00atm> (1)
5.07139581685413

>  <r_j_Heat_Capacity_(cal/mol/K)_298.15K_1.00E+00atm> (1)
29.1270301751936

>  <r_j_ln(Q)_298.15K_1.00E+00atm> (1)
31.6488414857496

>  <r_j_Total_Internal_Energy_(au)_298.15K_1.00E+00atm> (1)
-235.774987875503

>  <r_j_Total_Enthalpy_(au)_298.15K_1.00E+00atm> (1)
-235.774043689611

>  <r_j_Total_Free_Energy_(au)_298.15K_1.00E+00atm> (1)
-235.812952048857

>  <r_lp_tautomer_probability> (1)
1

>  <r_epik_Ionization_Penalty> (1)
  0.0000

>  <r_epik_Ionization_Penalty_Charging> (1)
  0.0000

>  <r_epik_Ionization_Penalty_Neutral> (1)
  0.0000

>  <r_epik_State_Penalty> (1)
  0.0000

>  <r_epik_Charging_Adjusted_Penalty> (1)
0

>  <i_epik_Tot_Q> (1)
0

>  <i_epik_Tot_abs_Q> (1)
0

>  <s_lp_Force_Field> (1)
S-OPLS

>  <r_lp_Energy> (1)
3.26436

>  <b_lp_Chiralities_Consistent> (1)
1

$$$$
