11288_1,2,3-Benzenetricarboxylic Acid
                    3D
 Schrodinger Suite 2021-3.
 18 18  0  0  1  0            999 V2000
   -2.0577    1.1530    0.0164 C   0  0  0  0  0  0
   -0.6626    1.1418    0.0273 C   0  0  0  0  0  0
    0.0662   -0.0594   -0.0136 C   0  0  0  0  0  0
   -0.6289   -1.3050    0.0014 C   0  0  0  0  0  0
   -2.0549   -1.2933    0.0207 C   0  0  0  0  0  0
   -2.7376   -0.0649   -0.0045 C   0  0  0  0  0  0
   -3.0022   -2.5291    0.1342 C   0  0  0  0  0  0
   -3.9963   -2.5278   -0.6583 O   0  0  0  0  0  0
   -2.7730   -3.3432    1.0629 O   0  5  0  0  0  0
    0.1549   -2.6512    0.0006 C   0  0  0  0  0  0
   -0.0310   -3.3883   -1.0028 O   0  0  0  0  0  0
    0.8873   -2.8527    1.0050 O   0  5  0  0  0  0
    1.6074    0.1508   -0.1443 C   0  0  0  0  0  0
    2.1895   -0.4536   -1.0790 O   0  0  0  0  0  0
    2.1087    1.0165    0.6404 O   0  5  0  0  0  0
   -2.6095    2.1011    0.0228 H   0  0  0  0  0  0
   -0.0911    2.0687    0.0726 H   0  0  0  0  0  0
   -3.8262   -0.1018   -0.0464 H   0  0  0  0  0  0
  1  6  1  0  0  0
  1  2  2  0  0  0
  1 16  1  0  0  0
  2  3  1  0  0  0
  2 17  1  0  0  0
  3  4  2  0  0  0
  3 13  1  0  0  0
  4  5  1  0  0  0
  4 10  1  0  0  0
  5  6  2  0  0  0
  5  7  1  0  0  0
  6 18  1  0  0  0
  7  8  2  0  0  0
  7  9  1  0  0  0
 10 11  2  0  0  0
 10 12  1  0  0  0
 13 14  2  0  0  0
 13 15  1  0  0  0
M  END
>  <i_m_Spin_multiplicity> (1)
1

>  <s_j_Task> (1)
Single Point

>  <s_j_QM_Method> (1)
DFT(b3lyp-d3)

>  <s_j_QM_Basis> (1)
cc-pvtz(-f)

>  <i_j_Number_of_canonical_orbitals> (1)
366

>  <i_j_Geometry_convergence_category> (1)
3

>  <r_j_Gas_Phase_Energy> (1)
-796.242142408564

>  <r_j_Final_Energy> (1)
-796.242142408564

>  <r_j_HOMO> (1)
0.195874852280468

>  <r_j_LUMO> (1)
0.37263066047677

>  <r_j_Polarizability> (1)
129.314045084671

>  <r_j_QM_Dipole_(debye)> (1)
7.42499991453213

>  <r_j_QM_Dipole_X_(debye)> (1)
-3.73325310855995

>  <r_j_QM_Dipole_Y_(debye)> (1)
6.41804857400435

>  <r_j_QM_Dipole_Z_(debye)> (1)
0.0457980343503481

>  <r_j_Lowest_Frequency_(cm-1)> (1)
63.9331774123012

>  <r_j_Highest_Frequency_(cm-1)> (1)
3080.06662805643

>  <r_j_2nd_Lowest_Frequency_(cm-1)> (1)
89.2668596221389

>  <i_j_Num_Negative_Frequencies> (1)
0

>  <r_j_Zero_Point_Energy_(kcal/mol)> (1)
64.982423926231

>  <r_j_Entropy_(cal/mol/K)_298.15K_1.00E+00atm> (1)
108.928473853364

>  <r_j_Enthalpy_(kcal/mol)_298.15K_1.00E+00atm> (1)
8.16476691419159

>  <r_j_Free_Energy_(kcal/mol)_298.15K_1.00E+00atm> (1)
-24.3122575651888

>  <r_j_Internal_Energy_(kcal/mol)_298.15K_1.00E+00atm> (1)
7.57228132536432

>  <r_j_Heat_Capacity_(cal/mol/K)_298.15K_1.00E+00atm> (1)
43.9735763103009

>  <r_j_ln(Q)_298.15K_1.00E+00atm> (1)
41.0343441657557

>  <r_j_Total_Internal_Energy_(au)_298.15K_1.00E+00atm> (1)
-796.126519125219

>  <r_j_Total_Enthalpy_(au)_298.15K_1.00E+00atm> (1)
-796.125574939326

>  <r_j_Total_Free_Energy_(au)_298.15K_1.00E+00atm> (1)
-796.177330372562

>  <r_epik_Ionization_Penalty> (1)
  0.0638

>  <r_epik_Ionization_Penalty_Charging> (1)
  0.0638

>  <r_epik_Ionization_Penalty_Neutral> (1)
  0.0000

>  <r_epik_State_Penalty> (1)
  0.0532

>  <r_epik_Charging_Adjusted_Penalty> (1)
0.11699

>  <i_epik_Tot_Q> (1)
-3

>  <i_epik_Tot_abs_Q> (1)
3

>  <s_lp_Force_Field> (1)
S-OPLS

>  <r_lp_Energy> (1)
127.621

>  <b_lp_Chiralities_Consistent> (1)
1

$$$$
