11317_1,2-dimethylnaphthalene
                    3D
 Schrodinger Suite 2021-3.
 24 25  0  0  1  0            999 V2000
   -0.0094   -0.0542    0.0000 C   0  0  0  0  0  0
    1.5008    0.0515   -0.0001 C   0  0  0  0  0  0
    2.1824    1.2627    0.0000 C   0  0  0  0  0  0
    3.6215    1.2633    0.0001 C   0  0  0  0  0  0
    4.4095    2.4505    0.0002 C   0  0  0  0  0  0
    5.7859    2.4074    0.0001 C   0  0  0  0  0  0
    6.4688    1.1708    0.0000 C   0  0  0  0  0  0
    5.7479    0.0008    0.0000 C   0  0  0  0  0  0
    4.3282    0.0132    0.0000 C   0  0  0  0  0  0
    3.5915   -1.1975   -0.0001 C   0  0  0  0  0  0
    2.2224   -1.1716   -0.0001 C   0  0  0  0  0  0
    1.3959    2.5598   -0.0001 C   0  0  0  0  0  0
   -0.5166    0.9103    0.0001 H   0  0  0  0  0  0
   -0.3545   -0.6103    0.8799 H   0  0  0  0  0  0
   -0.3546   -0.6102   -0.8799 H   0  0  0  0  0  0
    3.9264    3.4200    0.0003 H   0  0  0  0  0  0
    6.3521    3.3345    0.0002 H   0  0  0  0  0  0
    7.5546    1.1489    0.0000 H   0  0  0  0  0  0
    6.2560   -0.9604   -0.0001 H   0  0  0  0  0  0
    4.1291   -2.1419   -0.0001 H   0  0  0  0  0  0
    1.6625   -2.1039   -0.0001 H   0  0  0  0  0  0
    2.0289    3.4454   -0.0010 H   0  0  0  0  0  0
    0.7499    2.6296    0.8819 H   0  0  0  0  0  0
    0.7488    2.6288   -0.8815 H   0  0  0  0  0  0
  1  2  1  0  0  0
  1 13  1  0  0  0
  1 14  1  0  0  0
  1 15  1  0  0  0
  2 11  1  0  0  0
  2  3  2  0  0  0
  3  4  1  0  0  0
  3 12  1  0  0  0
  4  9  1  0  0  0
  4  5  2  0  0  0
  5  6  1  0  0  0
  5 16  1  0  0  0
  6  7  2  0  0  0
  6 17  1  0  0  0
  7  8  1  0  0  0
  7 18  1  0  0  0
  8  9  2  0  0  0
  8 19  1  0  0  0
  9 10  1  0  0  0
 10 11  2  0  0  0
 10 20  1  0  0  0
 11 21  1  0  0  0
 12 22  1  0  0  0
 12 23  1  0  0  0
 12 24  1  0  0  0
M  END
>  <i_m_Spin_multiplicity> (1)
1

>  <s_j_Task> (1)
Single Point

>  <s_j_QM_Method> (1)
DFT(b3lyp-d3)

>  <s_j_QM_Basis> (1)
cc-pvtz(-f)

>  <i_j_Number_of_canonical_orbitals> (1)
374

>  <i_j_Geometry_convergence_category> (1)
0

>  <r_j_Gas_Phase_Energy> (1)
-464.681325564386

>  <r_j_Final_Energy> (1)
-464.681325564386

>  <r_j_HOMO> (1)
-0.209129318017935

>  <r_j_LUMO> (1)
-0.0375226707077898

>  <r_j_Polarizability> (1)
139.483606594213

>  <r_j_QM_Dipole_(debye)> (1)
0.74498910428041

>  <r_j_QM_Dipole_X_(debye)> (1)
-0.733911869452576

>  <r_j_QM_Dipole_Y_(debye)> (1)
0.127992707665569

>  <r_j_QM_Dipole_Z_(debye)> (1)
1.25534515777867e-05

>  <r_j_Lowest_Frequency_(cm-1)> (1)
108.569694492574

>  <r_j_Highest_Frequency_(cm-1)> (1)
3164.90986087254

>  <r_j_2nd_Lowest_Frequency_(cm-1)> (1)
131.014919960132

>  <i_j_Num_Negative_Frequencies> (1)
0

>  <r_j_Zero_Point_Energy_(kcal/mol)> (1)
126.651387059128

>  <r_j_Entropy_(cal/mol/K)_298.15K_1.00E+00atm> (1)
95.8166772463463

>  <r_j_Enthalpy_(kcal/mol)_298.15K_1.00E+00atm> (1)
6.78493912491876

>  <r_j_Free_Energy_(kcal/mol)_298.15K_1.00E+00atm> (1)
-21.7828031960794

>  <r_j_Internal_Energy_(kcal/mol)_298.15K_1.00E+00atm> (1)
6.19245353609148

>  <r_j_Heat_Capacity_(cal/mol/K)_298.15K_1.00E+00atm> (1)
40.3251611596517

>  <r_j_ln(Q)_298.15K_1.00E+00atm> (1)
36.7651190287933

>  <r_j_Total_Internal_Energy_(au)_298.15K_1.00E+00atm> (1)
-464.469625427661

>  <r_j_Total_Enthalpy_(au)_298.15K_1.00E+00atm> (1)
-464.468681241769

>  <r_j_Total_Free_Energy_(au)_298.15K_1.00E+00atm> (1)
-464.514206837296

>  <r_lp_tautomer_probability> (1)
1

>  <r_epik_Ionization_Penalty> (1)
  0.0000

>  <r_epik_Ionization_Penalty_Charging> (1)
  0.0000

>  <r_epik_Ionization_Penalty_Neutral> (1)
  0.0000

>  <r_epik_State_Penalty> (1)
  0.0000

>  <r_epik_Charging_Adjusted_Penalty> (1)
0

>  <i_epik_Tot_Q> (1)
0

>  <i_epik_Tot_abs_Q> (1)
0

>  <s_lp_Force_Field> (1)
S-OPLS

>  <r_lp_Energy> (1)
22.7568

>  <b_lp_Chiralities_Consistent> (1)
1

$$$$
