11327_1,3-dimethylnaphthalene
                    3D
 Schrodinger Suite 2021-3.
 24 25  0  0  1  0            999 V2000
   -0.0144    0.0115    0.0000 C   0  0  0  0  0  0
    1.4942    0.0395    0.0000 C   0  0  0  0  0  0
    2.2007    1.2197    0.0001 C   0  0  0  0  0  0
    3.6213    1.2305    0.0001 C   0  0  0  0  0  0
    4.3508    2.4482    0.0001 C   0  0  0  0  0  0
    5.7272    2.4526    0.0000 C   0  0  0  0  0  0
    6.4360    1.2298   -0.0001 C   0  0  0  0  0  0
    5.7566    0.0308   -0.0001 C   0  0  0  0  0  0
    4.3362   -0.0100    0.0000 C   0  0  0  0  0  0
    3.5937   -1.2367    0.0000 C   0  0  0  0  0  0
    2.2169   -1.1850   -0.0001 C   0  0  0  0  0  0
    4.3092   -2.5665    0.0001 C   0  0  0  0  0  0
   -0.4359    1.0205    0.0000 H   0  0  0  0  0  0
   -0.4000   -0.5155    0.8809 H   0  0  0  0  0  0
   -0.4000   -0.5154   -0.8810 H   0  0  0  0  0  0
    1.6737    2.1709    0.0002 H   0  0  0  0  0  0
    3.7983    3.3843    0.0001 H   0  0  0  0  0  0
    6.2708    3.3929    0.0000 H   0  0  0  0  0  0
    7.5222    1.2372   -0.0002 H   0  0  0  0  0  0
    6.3169   -0.8984   -0.0002 H   0  0  0  0  0  0
    1.6544   -2.1165   -0.0002 H   0  0  0  0  0  0
    3.5970   -3.3956    0.0001 H   0  0  0  0  0  0
    4.9521   -2.6768    0.8814 H   0  0  0  0  0  0
    4.9523   -2.6770   -0.8810 H   0  0  0  0  0  0
  1  2  1  0  0  0
  1 13  1  0  0  0
  1 14  1  0  0  0
  1 15  1  0  0  0
  2 11  1  0  0  0
  2  3  2  0  0  0
  3  4  1  0  0  0
  3 16  1  0  0  0
  4  9  1  0  0  0
  4  5  2  0  0  0
  5  6  1  0  0  0
  5 17  1  0  0  0
  6  7  2  0  0  0
  6 18  1  0  0  0
  7  8  1  0  0  0
  7 19  1  0  0  0
  8  9  2  0  0  0
  8 20  1  0  0  0
  9 10  1  0  0  0
 10 11  2  0  0  0
 10 12  1  0  0  0
 11 21  1  0  0  0
 12 22  1  0  0  0
 12 23  1  0  0  0
 12 24  1  0  0  0
M  END
>  <i_m_Spin_multiplicity> (1)
1

>  <s_j_Task> (1)
Single Point

>  <s_j_QM_Method> (1)
DFT(b3lyp-d3)

>  <s_j_QM_Basis> (1)
cc-pvtz(-f)

>  <i_j_Number_of_canonical_orbitals> (1)
374

>  <i_j_Geometry_convergence_category> (1)
0

>  <r_j_Gas_Phase_Energy> (1)
-464.687443503244

>  <r_j_Final_Energy> (1)
-464.687443503244

>  <r_j_HOMO> (1)
-0.212685208749104

>  <r_j_LUMO> (1)
-0.0409217424174971

>  <r_j_Polarizability> (1)
140.398286336269

>  <r_j_QM_Dipole_(debye)> (1)
0.523695737033587

>  <r_j_QM_Dipole_X_(debye)> (1)
-0.300258023813008

>  <r_j_QM_Dipole_Y_(debye)> (1)
-0.429071486699327

>  <r_j_QM_Dipole_Z_(debye)> (1)
-5.85208308210111e-05

>  <r_j_Lowest_Frequency_(cm-1)> (1)
126.562493534535

>  <r_j_Highest_Frequency_(cm-1)> (1)
3151.7369002825

>  <r_j_2nd_Lowest_Frequency_(cm-1)> (1)
167.788430680329

>  <i_j_Num_Negative_Frequencies> (1)
0

>  <r_j_Zero_Point_Energy_(kcal/mol)> (1)
126.712057715628

>  <r_j_Entropy_(cal/mol/K)_298.15K_1.00E+00atm> (1)
94.6066839157724

>  <r_j_Enthalpy_(kcal/mol)_298.15K_1.00E+00atm> (1)
6.67180456376942

>  <r_j_Free_Energy_(kcal/mol)_298.15K_1.00E+00atm> (1)
-21.5351782457181

>  <r_j_Internal_Energy_(kcal/mol)_298.15K_1.00E+00atm> (1)
6.07931897494215

>  <r_j_Heat_Capacity_(cal/mol/K)_298.15K_1.00E+00atm> (1)
40.1604377728019

>  <r_j_ln(Q)_298.15K_1.00E+00atm> (1)
36.3471764576475

>  <r_j_Total_Internal_Energy_(au)_298.15K_1.00E+00atm> (1)
-464.475826973074

>  <r_j_Total_Enthalpy_(au)_298.15K_1.00E+00atm> (1)
-464.474882787181

>  <r_j_Total_Free_Energy_(au)_298.15K_1.00E+00atm> (1)
-464.519833475829

>  <r_lp_tautomer_probability> (1)
1

>  <r_epik_Ionization_Penalty> (1)
  0.0000

>  <r_epik_Ionization_Penalty_Charging> (1)
  0.0000

>  <r_epik_Ionization_Penalty_Neutral> (1)
  0.0000

>  <r_epik_State_Penalty> (1)
  0.0000

>  <r_epik_Charging_Adjusted_Penalty> (1)
0

>  <i_epik_Tot_Q> (1)
0

>  <i_epik_Tot_abs_Q> (1)
0

>  <s_lp_Force_Field> (1)
S-OPLS

>  <r_lp_Energy> (1)
17.8539

>  <b_lp_Chiralities_Consistent> (1)
1

$$$$
