11321244_Diethylene Glycol Monomethacrylate
                    3D
 Schrodinger Suite 2021-3.
 26 25  0  0  1  0            999 V2000
   -3.8027    2.9336   -0.0468 C   0  0  0  0  0  0
   -2.3132    2.7324    0.0320 C   0  0  0  0  0  0
   -1.4215    3.7279    0.1140 C   0  0  0  0  0  0
   -1.8800    1.3020    0.0320 C   0  0  0  0  0  0
   -2.6560    0.3643    0.0307 O   0  0  0  0  0  0
   -0.5363    1.1482    0.0330 O   0  0  0  0  0  0
   -0.0645   -0.2092    0.0841 C   0  0  0  0  0  0
    1.4452   -0.1725    0.0198 C   0  0  0  0  0  0
    1.9401    0.3946    1.2164 O   0  0  0  0  0  0
    3.3473    0.5373    1.2341 C   0  0  0  0  0  0
    3.7334    1.1996    2.5538 C   0  0  0  0  0  0
    5.1369    1.4030    2.6424 O   0  0  0  0  0  0
   -4.2070    2.4839   -0.9598 H   0  0  0  0  0  0
   -4.0575    3.9960   -0.0318 H   0  0  0  0  0  0
   -4.3034    2.4341    0.7888 H   0  0  0  0  0  0
   -1.7423    4.7654    0.1236 H   0  0  0  0  0  0
   -0.3577    3.5317    0.1785 H   0  0  0  0  0  0
   -0.4034   -0.6812    1.0116 H   0  0  0  0  0  0
   -0.4764   -0.7762   -0.7575 H   0  0  0  0  0  0
    1.8188   -1.2027   -0.1135 H   0  0  0  0  0  0
    1.7646    0.4143   -0.8569 H   0  0  0  0  0  0
    3.8452   -0.4465    1.1468 H   0  0  0  0  0  0
    3.7010    1.1577    0.3951 H   0  0  0  0  0  0
    3.2677    2.1876    2.6100 H   0  0  0  0  0  0
    3.3398    0.6021    3.3896 H   0  0  0  0  0  0
    5.5561    0.5386    2.7445 H   0  0  0  0  0  0
  1  2  1  0  0  0
  1 13  1  0  0  0
  1 14  1  0  0  0
  1 15  1  0  0  0
  2  3  2  0  0  0
  2  4  1  0  0  0
  3 16  1  0  0  0
  3 17  1  0  0  0
  4  5  2  0  0  0
  4  6  1  0  0  0
  6  7  1  0  0  0
  7  8  1  0  0  0
  7 18  1  0  0  0
  7 19  1  0  0  0
  8  9  1  0  0  0
  8 20  1  0  0  0
  8 21  1  0  0  0
  9 10  1  0  0  0
 10 11  1  0  0  0
 10 22  1  0  0  0
 10 23  1  0  0  0
 11 12  1  0  0  0
 11 24  1  0  0  0
 11 25  1  0  0  0
 12 26  1  0  0  0
M  END
>  <i_m_Spin_multiplicity> (1)
1

>  <s_j_Task> (1)
Single Point

>  <s_j_QM_Method> (1)
DFT(b3lyp-d3)

>  <s_j_QM_Basis> (1)
cc-pvtz(-f)

>  <i_j_Number_of_canonical_orbitals> (1)
400

>  <i_j_Geometry_convergence_category> (1)
1

>  <r_j_Gas_Phase_Energy> (1)
-614.384542880609

>  <r_j_Final_Energy> (1)
-614.384542880609

>  <r_j_HOMO> (1)
-0.261760512987654

>  <r_j_LUMO> (1)
-0.0388263674874352

>  <r_j_Polarizability> (1)
112.067027350752

>  <r_j_QM_Dipole_(debye)> (1)
1.73943828342268

>  <r_j_QM_Dipole_X_(debye)> (1)
1.49991091576942

>  <r_j_QM_Dipole_Y_(debye)> (1)
-0.561081375115907

>  <r_j_QM_Dipole_Z_(debye)> (1)
-0.67904379615031

>  <r_j_Lowest_Frequency_(cm-1)> (1)
40.4489256128362

>  <r_j_Highest_Frequency_(cm-1)> (1)
3761.14478643162

>  <r_j_2nd_Lowest_Frequency_(cm-1)> (1)
67.8694577091635

>  <i_j_Num_Negative_Frequencies> (1)
0

>  <r_j_Zero_Point_Energy_(kcal/mol)> (1)
136.644128050912

>  <r_j_Entropy_(cal/mol/K)_298.15K_1.00E+00atm> (1)
113.388470181544

>  <r_j_Enthalpy_(kcal/mol)_298.15K_1.00E+00atm> (1)
8.91201762187172

>  <r_j_Free_Energy_(kcal/mol)_298.15K_1.00E+00atm> (1)
-24.8947547627556

>  <r_j_Internal_Energy_(kcal/mol)_298.15K_1.00E+00atm> (1)
8.31953203304444

>  <r_j_Heat_Capacity_(cal/mol/K)_298.15K_1.00E+00atm> (1)
48.206973313304

>  <r_j_ln(Q)_298.15K_1.00E+00atm> (1)
42.0174857113919

>  <r_j_Total_Internal_Energy_(au)_298.15K_1.00E+00atm> (1)
-614.153528581998

>  <r_j_Total_Enthalpy_(au)_298.15K_1.00E+00atm> (1)
-614.152584396105

>  <r_j_Total_Free_Energy_(au)_298.15K_1.00E+00atm> (1)
-614.206458917528

>  <r_lp_tautomer_probability> (1)
1

>  <r_epik_Ionization_Penalty> (1)
  0.0000

>  <r_epik_Ionization_Penalty_Charging> (1)
  0.0000

>  <r_epik_Ionization_Penalty_Neutral> (1)
  0.0000

>  <r_epik_State_Penalty> (1)
  0.0000

>  <r_epik_Charging_Adjusted_Penalty> (1)
0

>  <i_epik_Tot_Q> (1)
0

>  <i_epik_Tot_abs_Q> (1)
0

>  <s_lp_Force_Field> (1)
S-OPLS

>  <r_lp_Energy> (1)
3.714561

>  <b_lp_Chiralities_Consistent> (1)
1

>  <s_epik_Chemistry_Notes> (1)
This compound has an ester and may undergo hydrolysis at high or low pH.

$$$$
