11335_Phenol, 2,6-dimethyl-
                    3D
 Schrodinger Suite 2021-3.
 19 19  0  0  1  0            999 V2000
   -0.0321    0.0074    0.0000 C   0  0  0  0  0  0
    1.4793    0.0147    0.0000 C   0  0  0  0  0  0
    2.2063    1.2151    0.0000 C   0  0  0  0  0  0
    3.6146    1.2260    0.0000 C   0  0  0  0  0  0
    4.2891    0.0037    0.0000 C   0  0  0  0  0  0
    3.5897   -1.2020    0.0000 C   0  0  0  0  0  0
    2.1973   -1.1854    0.0000 C   0  0  0  0  0  0
    4.3632    2.5390    0.0000 C   0  0  0  0  0  0
    1.4837    2.3842    0.0000 O   0  0  0  0  0  0
   -0.4410    1.0179    0.0000 H   0  0  0  0  0  0
   -0.4178   -0.5166    0.8819 H   0  0  0  0  0  0
   -0.4178   -0.5166   -0.8819 H   0  0  0  0  0  0
    5.3762    0.0027    0.0000 H   0  0  0  0  0  0
    4.1273   -2.1452    0.0000 H   0  0  0  0  0  0
    1.6440   -2.1216    0.0000 H   0  0  0  0  0  0
    5.4431    2.3725    0.0000 H   0  0  0  0  0  0
    4.1323    3.1462    0.8865 H   0  0  0  0  0  0
    4.1323    3.1462   -0.8865 H   0  0  0  0  0  0
    2.0875    3.1363    0.0000 H   0  0  0  0  0  0
  1  2  1  0  0  0
  1 10  1  0  0  0
  1 11  1  0  0  0
  1 12  1  0  0  0
  2  7  1  0  0  0
  2  3  2  0  0  0
  3  4  1  0  0  0
  3  9  1  0  0  0
  4  5  2  0  0  0
  4  8  1  0  0  0
  5  6  1  0  0  0
  5 13  1  0  0  0
  6  7  2  0  0  0
  6 14  1  0  0  0
  7 15  1  0  0  0
  8 16  1  0  0  0
  8 17  1  0  0  0
  8 18  1  0  0  0
  9 19  1  0  0  0
M  END
>  <i_m_Spin_multiplicity> (1)
1

>  <s_j_Task> (1)
Single Point

>  <s_j_QM_Method> (1)
DFT(b3lyp-d3)

>  <s_j_QM_Basis> (1)
cc-pvtz(-f)

>  <i_j_Number_of_canonical_orbitals> (1)
291

>  <i_j_Geometry_convergence_category> (1)
0

>  <r_j_Gas_Phase_Energy> (1)
-386.246241691132

>  <r_j_Final_Energy> (1)
-386.246241691132

>  <r_j_HOMO> (1)
-0.21786993496054

>  <r_j_LUMO> (1)
-0.00680021677594382

>  <r_j_Polarizability> (1)
94.6520650507891

>  <r_j_QM_Dipole_(debye)> (1)
1.39542020730457

>  <r_j_QM_Dipole_X_(debye)> (1)
0.968394957015022

>  <r_j_QM_Dipole_Y_(debye)> (1)
1.00469336704141

>  <r_j_QM_Dipole_Z_(debye)> (1)
-2.01197284651824e-05

>  <r_j_Lowest_Frequency_(cm-1)> (1)
134.852229481315

>  <r_j_Highest_Frequency_(cm-1)> (1)
3790.84122183116

>  <r_j_2nd_Lowest_Frequency_(cm-1)> (1)
142.047356936172

>  <i_j_Num_Negative_Frequencies> (1)
0

>  <r_j_Zero_Point_Energy_(kcal/mol)> (1)
99.9665446831137

>  <r_j_Entropy_(cal/mol/K)_298.15K_1.00E+00atm> (1)
88.4906662773001

>  <r_j_Enthalpy_(kcal/mol)_298.15K_1.00E+00atm> (1)
5.93998881665039

>  <r_j_Free_Energy_(kcal/mol)_298.15K_1.00E+00atm> (1)
-20.4435033339266

>  <r_j_Internal_Energy_(kcal/mol)_298.15K_1.00E+00atm> (1)
5.34750322782311

>  <r_j_Heat_Capacity_(cal/mol/K)_298.15K_1.00E+00atm> (1)
33.2934567365088

>  <r_j_ln(Q)_298.15K_1.00E+00atm> (1)
34.5046423397253

>  <r_j_Total_Internal_Energy_(au)_298.15K_1.00E+00atm> (1)
-386.078413071891

>  <r_j_Total_Enthalpy_(au)_298.15K_1.00E+00atm> (1)
-386.077468885998

>  <r_j_Total_Free_Energy_(au)_298.15K_1.00E+00atm> (1)
-386.119513657292

>  <r_lp_tautomer_probability> (1)
1

>  <r_epik_Ionization_Penalty> (1)
  0.0001

>  <r_epik_Ionization_Penalty_Charging> (1)
  0.0000

>  <r_epik_Ionization_Penalty_Neutral> (1)
  0.0001

>  <r_epik_State_Penalty> (1)
  0.0000

>  <r_epik_Charging_Adjusted_Penalty> (1)
0

>  <i_epik_Tot_Q> (1)
0

>  <i_epik_Tot_abs_Q> (1)
0

>  <s_lp_Force_Field> (1)
S-OPLS

>  <r_lp_Energy> (1)
7.09314

>  <b_lp_Chiralities_Consistent> (1)
1

$$$$
