11345_1,4-isodipropylbenzene
                    3D
 Schrodinger Suite 2021-3.
 30 30  0  0  1  0            999 V2000
   -0.6052   -0.7172    1.2730 C   0  0  0  0  0  0
   -0.0029   -0.0808    0.0096 C   0  0  0  0  0  0
   -0.5026   -0.8087   -1.2543 C   0  0  0  0  0  0
    1.5249   -0.0244    0.0165 C   0  0  0  0  0  0
    2.2538   -1.0695    0.6000 C   0  0  0  0  0  0
    3.6468   -1.0797    0.6102 C   0  0  0  0  0  0
    4.3422   -0.0244    0.0282 C   0  0  0  0  0  0
    3.6333    1.0162   -0.5679 C   0  0  0  0  0  0
    2.2324    1.0357   -0.5990 C   0  0  0  0  0  0
    1.5078    2.2179   -1.2429 C   0  0  0  0  0  0
    2.2295    2.7908   -2.4738 C   0  0  0  0  0  0
    1.2593    3.3235   -0.1974 C   0  0  0  0  0  0
   -0.2065   -0.2545    2.1810 H   0  0  0  0  0  0
   -0.4051   -1.7924    1.3266 H   0  0  0  0  0  0
   -1.6931   -0.5928    1.2730 H   0  0  0  0  0  0
   -0.3820    0.9457   -0.0256 H   0  0  0  0  0  0
   -0.1257   -0.3337   -2.1656 H   0  0  0  0  0  0
   -1.5975   -0.8160   -1.2983 H   0  0  0  0  0  0
   -0.1538   -1.8473   -1.2550 H   0  0  0  0  0  0
    1.7239   -1.8970    1.0606 H   0  0  0  0  0  0
    4.1810   -1.9046    1.0734 H   0  0  0  0  0  0
    5.4285   -0.0094    0.0324 H   0  0  0  0  0  0
    4.1882    1.8312   -1.0211 H   0  0  0  0  0  0
    0.5322    1.8689   -1.5961 H   0  0  0  0  0  0
    2.4724    2.0043   -3.1949 H   0  0  0  0  0  0
    3.1604    3.3002   -2.2041 H   0  0  0  0  0  0
    1.5923    3.5289   -2.9720 H   0  0  0  0  0  0
    0.6970    2.9434    0.6614 H   0  0  0  0  0  0
    0.6992    4.1589   -0.6323 H   0  0  0  0  0  0
    2.2132    3.7103    0.1777 H   0  0  0  0  0  0
  1  2  1  0  0  0
  1 13  1  0  0  0
  1 14  1  0  0  0
  1 15  1  0  0  0
  2  3  1  0  0  0
  2  4  1  0  0  0
  2 16  1  0  0  0
  3 17  1  0  0  0
  3 18  1  0  0  0
  3 19  1  0  0  0
  4  9  1  0  0  0
  4  5  2  0  0  0
  5  6  1  0  0  0
  5 20  1  0  0  0
  6  7  2  0  0  0
  6 21  1  0  0  0
  7  8  1  0  0  0
  7 22  1  0  0  0
  8  9  2  0  0  0
  8 23  1  0  0  0
  9 10  1  0  0  0
 10 11  1  0  0  0
 10 12  1  0  0  0
 10 24  1  0  0  0
 11 25  1  0  0  0
 11 26  1  0  0  0
 11 27  1  0  0  0
 12 28  1  0  0  0
 12 29  1  0  0  0
 12 30  1  0  0  0
M  END
>  <i_m_Spin_multiplicity> (1)
1

>  <s_j_Task> (1)
Single Point

>  <s_j_QM_Method> (1)
DFT(b3lyp-d3)

>  <s_j_QM_Basis> (1)
cc-pvtz(-f)

>  <i_j_Number_of_canonical_orbitals> (1)
431

>  <i_j_Geometry_convergence_category> (1)
3

>  <r_j_Gas_Phase_Energy> (1)
-468.309598601165

>  <r_j_Final_Energy> (1)
-468.309598601165

>  <r_j_HOMO> (1)
-0.234995387197637

>  <r_j_LUMO> (1)
-0.00485288321089468

>  <r_j_Polarizability> (1)
138.43451659556

>  <r_j_QM_Dipole_(debye)> (1)
0.673077264897034

>  <r_j_QM_Dipole_X_(debye)> (1)
-0.583024382918436

>  <r_j_QM_Dipole_Y_(debye)> (1)
0.291054954830511

>  <r_j_QM_Dipole_Z_(debye)> (1)
-0.168530669946032

>  <r_j_Lowest_Frequency_(cm-1)> (1)
70.1083162301377

>  <r_j_Highest_Frequency_(cm-1)> (1)
3149.1691111215

>  <r_j_2nd_Lowest_Frequency_(cm-1)> (1)
98.5397392040279

>  <i_j_Num_Negative_Frequencies> (1)
0

>  <r_j_Zero_Point_Energy_(kcal/mol)> (1)
168.828969416045

>  <r_j_Entropy_(cal/mol/K)_298.15K_1.00E+00atm> (1)
104.987277715741

>  <r_j_Enthalpy_(kcal/mol)_298.15K_1.00E+00atm> (1)
8.17394730694495

>  <r_j_Free_Energy_(kcal/mol)_298.15K_1.00E+00atm> (1)
-23.1280095440033

>  <r_j_Internal_Energy_(kcal/mol)_298.15K_1.00E+00atm> (1)
7.58146171811767

>  <r_j_Heat_Capacity_(cal/mol/K)_298.15K_1.00E+00atm> (1)
48.5931604331709

>  <r_j_ln(Q)_298.15K_1.00E+00atm> (1)
39.03556471269

>  <r_j_Total_Internal_Energy_(au)_298.15K_1.00E+00atm> (1)
-468.028470682675

>  <r_j_Total_Enthalpy_(au)_298.15K_1.00E+00atm> (1)
-468.027526496783

>  <r_j_Total_Free_Energy_(au)_298.15K_1.00E+00atm> (1)
-468.077409340544

>  <r_lp_tautomer_probability> (1)
1

>  <r_epik_Ionization_Penalty> (1)
  0.0000

>  <r_epik_Ionization_Penalty_Charging> (1)
  0.0000

>  <r_epik_Ionization_Penalty_Neutral> (1)
  0.0000

>  <r_epik_State_Penalty> (1)
  0.0000

>  <r_epik_Charging_Adjusted_Penalty> (1)
0

>  <i_epik_Tot_Q> (1)
0

>  <i_epik_Tot_abs_Q> (1)
0

>  <s_lp_Force_Field> (1)
S-OPLS

>  <r_lp_Energy> (1)
18.8258

>  <b_lp_Chiralities_Consistent> (1)
1

$$$$
