11412_3,4-dimethylhexane
                    3D
 Schrodinger Suite 2021-3.
 26 25  0  0  1  0            999 V2000
   -2.1414   -0.7607    1.3064 C   0  0  0  0  0  0
   -0.6092   -0.7259    1.2332 C   0  0  0  0  0  0
   -0.0288   -0.0266   -0.0175 C   0  0  0  0  0  0
   -0.5558   -0.6948   -1.2995 C   0  0  0  0  0  0
    1.5285    0.0256    0.0164 C   0  0  0  0  0  0
    2.0553    0.6938    1.2984 C   0  0  0  0  0  0
    2.1096    0.7251   -1.2339 C   0  0  0  0  0  0
    3.6418    0.7634   -1.3036 C   0  0  0  0  0  0
   -2.4731   -1.1357    2.2803 H   0  0  0  0  0  0
   -2.5828   -1.4073    0.5425 H   0  0  0  0  0  0
   -2.5632    0.2431    1.1765 H   0  0  0  0  0  0
   -0.2462   -0.2187    2.1319 H   0  0  0  0  0  0
   -0.2155   -1.7518    1.2811 H   0  0  0  0  0  0
   -0.3883    1.0157   -0.0072 H   0  0  0  0  0  0
   -0.1793   -1.7223   -1.3821 H   0  0  0  0  0  0
   -0.2584   -0.1562   -2.2018 H   0  0  0  0  0  0
   -1.6476   -0.7397   -1.3059 H   0  0  0  0  0  0
    1.8881   -1.0167    0.0061 H   0  0  0  0  0  0
    1.6790    1.7214    1.3807 H   0  0  0  0  0  0
    3.1471    0.7384    1.3050 H   0  0  0  0  0  0
    1.7574    0.1554    2.2007 H   0  0  0  0  0  0
    1.7495    0.2163   -2.1329 H   0  0  0  0  0  0
    1.7137    1.7500   -1.2833 H   0  0  0  0  0  0
    3.9749    1.1391   -2.2768 H   0  0  0  0  0  0
    4.0656   -0.2395   -1.1729 H   0  0  0  0  0  0
    4.0800    1.4108   -0.5386 H   0  0  0  0  0  0
  1  2  1  0  0  0
  1  9  1  0  0  0
  1 10  1  0  0  0
  1 11  1  0  0  0
  2  3  1  0  0  0
  2 12  1  0  0  0
  2 13  1  0  0  0
  3  4  1  0  0  0
  3  5  1  0  0  0
  3 14  1  0  0  0
  4 15  1  0  0  0
  4 16  1  0  0  0
  4 17  1  0  0  0
  5  6  1  0  0  0
  5  7  1  0  0  0
  5 18  1  0  0  0
  6 19  1  0  0  0
  6 20  1  0  0  0
  6 21  1  0  0  0
  7  8  1  0  0  0
  7 22  1  0  0  0
  7 23  1  0  0  0
  8 24  1  0  0  0
  8 25  1  0  0  0
  8 26  1  0  0  0
M  END
>  <i_m_Spin_multiplicity> (1)
1

>  <s_j_Task> (1)
Single Point

>  <s_j_QM_Method> (1)
DFT(b3lyp-d3)

>  <s_j_QM_Basis> (1)
cc-pvtz(-f)

>  <i_j_Number_of_canonical_orbitals> (1)
344

>  <i_j_Geometry_convergence_category> (1)
1

>  <r_j_Gas_Phase_Energy> (1)
-315.836378760765

>  <r_j_Final_Energy> (1)
-315.836378760765

>  <r_j_HOMO> (1)
-0.300173319848426

>  <r_j_LUMO> (1)
0.0290653780280425

>  <r_j_Polarizability> (1)
98.7039940650337

>  <r_j_QM_Dipole_(debye)> (1)
0.000539994569887452

>  <r_j_QM_Dipole_X_(debye)> (1)
0.000526541619435579

>  <r_j_QM_Dipole_Y_(debye)> (1)
0.000112741895906595

>  <r_j_QM_Dipole_Z_(debye)> (1)
-4.04638532208532e-05

>  <r_j_Lowest_Frequency_(cm-1)> (1)
69.340647021168

>  <r_j_Highest_Frequency_(cm-1)> (1)
3074.13699408557

>  <r_j_2nd_Lowest_Frequency_(cm-1)> (1)
113.105707334507

>  <i_j_Num_Negative_Frequencies> (1)
0

>  <r_j_Zero_Point_Energy_(kcal/mol)> (1)
153.803639190967

>  <r_j_Entropy_(cal/mol/K)_298.15K_1.00E+00atm> (1)
95.7774409020179

>  <r_j_Enthalpy_(kcal/mol)_298.15K_1.00E+00atm> (1)
7.02845154053105

>  <r_j_Free_Energy_(kcal/mol)_298.15K_1.00E+00atm> (1)
-21.5275924644056

>  <r_j_Internal_Energy_(kcal/mol)_298.15K_1.00E+00atm> (1)
6.43596595170377

>  <r_j_Heat_Capacity_(cal/mol/K)_298.15K_1.00E+00atm> (1)
39.3116267915545

>  <r_j_ln(Q)_298.15K_1.00E+00atm> (1)
36.3343731398022

>  <r_j_Total_Internal_Energy_(au)_298.15K_1.00E+00atm> (1)
-315.581020693989

>  <r_j_Total_Enthalpy_(au)_298.15K_1.00E+00atm> (1)
-315.580076508097

>  <r_j_Total_Free_Energy_(au)_298.15K_1.00E+00atm> (1)
-315.625583461171

>  <r_lp_tautomer_probability> (1)
1

>  <r_epik_Ionization_Penalty> (1)
  0.0000

>  <r_epik_Ionization_Penalty_Charging> (1)
  0.0000

>  <r_epik_Ionization_Penalty_Neutral> (1)
  0.0000

>  <r_epik_State_Penalty> (1)
  0.0000

>  <r_epik_Charging_Adjusted_Penalty> (1)
0

>  <i_epik_Tot_Q> (1)
0

>  <i_epik_Tot_abs_Q> (1)
0

>  <s_lp_Force_Field> (1)
S-OPLS

>  <r_lp_Energy> (1)
7.955424

>  <b_lp_Chiralities_Consistent> (1)
1

$$$$
