11487_N-phenylaniline
                    3D
 Schrodinger Suite 2021-3.
 24 25  0  0  1  0            999 V2000
   -2.8721   -0.1995    0.1110 C   0  0  0  0  0  0
   -2.0265   -1.2525    0.4642 C   0  0  0  0  0  0
   -0.6466   -1.1227    0.3432 C   0  0  0  0  0  0
   -0.0784    0.0768   -0.1201 C   0  0  0  0  0  0
   -0.9307    1.1427   -0.4554 C   0  0  0  0  0  0
   -2.3113    0.9936   -0.3464 C   0  0  0  0  0  0
    1.3151    0.1771   -0.1778 N   0  0  0  0  0  0
    2.1086    1.0124   -0.9702 C   0  0  0  0  0  0
    3.4105    1.3135   -0.5335 C   0  0  0  0  0  0
    4.2541    2.1010   -1.3107 C   0  0  0  0  0  0
    3.8161    2.6205   -2.5301 C   0  0  0  0  0  0
    2.5254    2.3212   -2.9680 C   0  0  0  0  0  0
    1.6770    1.5195   -2.2078 C   0  0  0  0  0  0
   -3.9490   -0.3056    0.1960 H   0  0  0  0  0  0
   -2.4427   -2.1882    0.8268 H   0  0  0  0  0  0
    0.0046   -1.9547    0.6011 H   0  0  0  0  0  0
   -0.5101    2.0898   -0.7729 H   0  0  0  0  0  0
   -2.9535    1.8295   -0.6096 H   0  0  0  0  0  0
    1.8195   -0.4417    0.4386 H   0  0  0  0  0  0
    3.7519    0.9294    0.4249 H   0  0  0  0  0  0
    5.2567    2.3185   -0.9536 H   0  0  0  0  0  0
    4.4715    3.2433   -3.1307 H   0  0  0  0  0  0
    2.1737    2.7029   -3.9225 H   0  0  0  0  0  0
    0.6927    1.2629   -2.5819 H   0  0  0  0  0  0
  1  6  1  0  0  0
  1  2  2  0  0  0
  1 14  1  0  0  0
  2  3  1  0  0  0
  2 15  1  0  0  0
  3  4  2  0  0  0
  3 16  1  0  0  0
  4  5  1  0  0  0
  4  7  1  0  0  0
  5  6  2  0  0  0
  5 17  1  0  0  0
  6 18  1  0  0  0
  7  8  1  0  0  0
  7 19  1  0  0  0
  8 13  1  0  0  0
  8  9  2  0  0  0
  9 10  1  0  0  0
  9 20  1  0  0  0
 10 11  2  0  0  0
 10 21  1  0  0  0
 11 12  1  0  0  0
 11 22  1  0  0  0
 12 13  2  0  0  0
 12 23  1  0  0  0
 13 24  1  0  0  0
M  END
>  <i_m_Spin_multiplicity> (1)
1

>  <s_j_Task> (1)
Single Point

>  <s_j_QM_Method> (1)
DFT(b3lyp-d3)

>  <s_j_QM_Basis> (1)
cc-pvtz(-f)

>  <i_j_Number_of_canonical_orbitals> (1)
387

>  <i_j_Geometry_convergence_category> (1)
3

>  <r_j_Gas_Phase_Energy> (1)
-518.83218177976

>  <r_j_Final_Energy> (1)
-518.83218177976

>  <r_j_HOMO> (1)
-0.187985353722316

>  <r_j_LUMO> (1)
-0.0118202435932482

>  <r_j_Polarizability> (1)
149.369969885904

>  <r_j_QM_Dipole_(debye)> (1)
0.876341919885336

>  <r_j_QM_Dipole_X_(debye)> (1)
0.440636844305445

>  <r_j_QM_Dipole_Y_(debye)> (1)
-0.536605966236331

>  <r_j_QM_Dipole_Z_(debye)> (1)
0.534666596103058

>  <r_j_Lowest_Frequency_(cm-1)> (1)
65.3043047021328

>  <r_j_Highest_Frequency_(cm-1)> (1)
3580.88345531055

>  <r_j_2nd_Lowest_Frequency_(cm-1)> (1)
83.3146453683403

>  <i_j_Num_Negative_Frequencies> (1)
0

>  <r_j_Zero_Point_Energy_(kcal/mol)> (1)
123.691986512363

>  <r_j_Entropy_(cal/mol/K)_298.15K_1.00E+00atm> (1)
97.3295505933013

>  <r_j_Enthalpy_(kcal/mol)_298.15K_1.00E+00atm> (1)
6.80488590656011

>  <r_j_Free_Energy_(kcal/mol)_298.15K_1.00E+00atm> (1)
-22.2139196028327

>  <r_j_Internal_Energy_(kcal/mol)_298.15K_1.00E+00atm> (1)
6.21240031773283

>  <r_j_Heat_Capacity_(cal/mol/K)_298.15K_1.00E+00atm> (1)
41.0468658705069

>  <r_j_ln(Q)_298.15K_1.00E+00atm> (1)
37.4927593543691

>  <r_j_Total_Internal_Energy_(au)_298.15K_1.00E+00atm> (1)
-518.625165960812

>  <r_j_Total_Enthalpy_(au)_298.15K_1.00E+00atm> (1)
-518.624221774919

>  <r_j_Total_Free_Energy_(au)_298.15K_1.00E+00atm> (1)
-518.670466185397

>  <r_lp_tautomer_probability> (1)
1

>  <r_epik_Ionization_Penalty> (1)
  0.0000

>  <r_epik_Ionization_Penalty_Charging> (1)
  0.0000

>  <r_epik_Ionization_Penalty_Neutral> (1)
  0.0000

>  <r_epik_State_Penalty> (1)
  0.0000

>  <r_epik_Charging_Adjusted_Penalty> (1)
0

>  <i_epik_Tot_Q> (1)
0

>  <i_epik_Tot_abs_Q> (1)
0

>  <s_lp_Force_Field> (1)
S-OPLS

>  <r_lp_Energy> (1)
22.3955

>  <b_lp_Chiralities_Consistent> (1)
1

$$$$
