11512_4-methylheptane
                    3D
 Schrodinger Suite 2021-3.
 26 25  0  0  1  0            999 V2000
   -2.1511    1.5475    0.0423 C   0  0  0  0  0  0
   -0.6219    1.5208   -0.0490 C   0  0  0  0  0  0
   -0.0613    0.0930   -0.1014 C   0  0  0  0  0  0
    1.4760   -0.0104   -0.0527 C   0  0  0  0  0  0
    2.1350    0.7061   -1.2419 C   0  0  0  0  0  0
    1.9519   -1.4761    0.0036 C   0  0  0  0  0  0
    1.5364   -2.2606    1.2552 C   0  0  0  0  0  0
    2.1541   -3.6620    1.3008 C   0  0  0  0  0  0
   -2.5349    2.5726    0.0736 H   0  0  0  0  0  0
   -2.5026    1.0313    0.9432 H   0  0  0  0  0  0
   -2.6053    1.0477   -0.8212 H   0  0  0  0  0  0
   -0.3055    2.0836   -0.9350 H   0  0  0  0  0  0
   -0.1925    2.0450    0.8161 H   0  0  0  0  0  0
   -0.4871   -0.4689    0.7393 H   0  0  0  0  0  0
   -0.4222   -0.4062   -1.0136 H   0  0  0  0  0  0
    1.8147    0.4844    0.8715 H   0  0  0  0  0  0
    1.7930    0.2743   -2.1909 H   0  0  0  0  0  0
    3.2252    0.6059   -1.2056 H   0  0  0  0  0  0
    1.9032    1.7748   -1.2597 H   0  0  0  0  0  0
    1.5924   -2.0037   -0.8928 H   0  0  0  0  0  0
    3.0490   -1.4873   -0.0624 H   0  0  0  0  0  0
    1.8358   -1.6969    2.1496 H   0  0  0  0  0  0
    0.4445   -2.3490    1.3016 H   0  0  0  0  0  0
    1.8458   -4.2090    2.1979 H   0  0  0  0  0  0
    3.2491   -3.6115    1.2998 H   0  0  0  0  0  0
    1.8517   -4.2537    0.4290 H   0  0  0  0  0  0
  1  2  1  0  0  0
  1  9  1  0  0  0
  1 10  1  0  0  0
  1 11  1  0  0  0
  2  3  1  0  0  0
  2 12  1  0  0  0
  2 13  1  0  0  0
  3  4  1  0  0  0
  3 14  1  0  0  0
  3 15  1  0  0  0
  4  5  1  0  0  0
  4  6  1  0  0  0
  4 16  1  0  0  0
  5 17  1  0  0  0
  5 18  1  0  0  0
  5 19  1  0  0  0
  6  7  1  0  0  0
  6 20  1  0  0  0
  6 21  1  0  0  0
  7  8  1  0  0  0
  7 22  1  0  0  0
  7 23  1  0  0  0
  8 24  1  0  0  0
  8 25  1  0  0  0
  8 26  1  0  0  0
M  END
>  <i_m_Spin_multiplicity> (1)
1

>  <s_j_Task> (1)
Single Point

>  <s_j_QM_Method> (1)
DFT(b3lyp-d3)

>  <s_j_QM_Basis> (1)
cc-pvtz(-f)

>  <i_j_Number_of_canonical_orbitals> (1)
343

>  <i_j_Geometry_convergence_category> (1)
0

>  <r_j_Gas_Phase_Energy> (1)
-315.840317934122

>  <r_j_Final_Energy> (1)
-315.840317934122

>  <r_j_HOMO> (1)
-0.306531918699908

>  <r_j_LUMO> (1)
0.0194124784049599

>  <r_j_Polarizability> (1)
99.3945278930928

>  <r_j_QM_Dipole_(debye)> (1)
0.119158640649772

>  <r_j_QM_Dipole_X_(debye)> (1)
0.00719566569276354

>  <r_j_QM_Dipole_Y_(debye)> (1)
0.0676484723494263

>  <r_j_QM_Dipole_Z_(debye)> (1)
0.0978298943346481

>  <r_j_Lowest_Frequency_(cm-1)> (1)
109.517932624202

>  <r_j_Highest_Frequency_(cm-1)> (1)
3057.36982526075

>  <r_j_2nd_Lowest_Frequency_(cm-1)> (1)
121.868428961285

>  <i_j_Num_Negative_Frequencies> (1)
0

>  <r_j_Zero_Point_Energy_(kcal/mol)> (1)
153.92758876621

>  <r_j_Entropy_(cal/mol/K)_298.15K_1.00E+00atm> (1)
96.8109212457942

>  <r_j_Enthalpy_(kcal/mol)_298.15K_1.00E+00atm> (1)
7.04423736795433

>  <r_j_Free_Energy_(kcal/mol)_298.15K_1.00E+00atm> (1)
-21.8199388014792

>  <r_j_Internal_Energy_(kcal/mol)_298.15K_1.00E+00atm> (1)
6.45175177912706

>  <r_j_Heat_Capacity_(cal/mol/K)_298.15K_1.00E+00atm> (1)
38.6996418444897

>  <r_j_ln(Q)_298.15K_1.00E+00atm> (1)
36.8277966805372

>  <r_j_Total_Internal_Energy_(au)_298.15K_1.00E+00atm> (1)
-315.584737184806

>  <r_j_Total_Enthalpy_(au)_298.15K_1.00E+00atm> (1)
-315.583792998914

>  <r_j_Total_Free_Energy_(au)_298.15K_1.00E+00atm> (1)
-315.629790991852

>  <r_lp_tautomer_probability> (1)
1

>  <r_epik_Ionization_Penalty> (1)
  0.0000

>  <r_epik_Ionization_Penalty_Charging> (1)
  0.0000

>  <r_epik_Ionization_Penalty_Neutral> (1)
  0.0000

>  <r_epik_State_Penalty> (1)
  0.0000

>  <r_epik_Charging_Adjusted_Penalty> (1)
0

>  <i_epik_Tot_Q> (1)
0

>  <i_epik_Tot_abs_Q> (1)
0

>  <s_lp_Force_Field> (1)
S-OPLS

>  <r_lp_Energy> (1)
4.28472

>  <b_lp_Chiralities_Consistent> (1)
1

$$$$
