11523_Cis-1,4-dimethylcyclohexane
                    3D
 Schrodinger Suite 2021-3.
 24 24  0  0  1  0            999 V2000
   -0.0523   -0.1015    0.0000 C   0  0  0  0  0  0
    1.4770   -0.0144    0.0000 C   0  0  0  0  0  0
    2.0055    0.6906   -1.2624 C   0  0  0  0  0  0
    3.5390    0.7985   -1.2624 C   0  0  0  0  0  0
    4.0888    1.4977    0.0000 C   0  0  0  0  0  0
    3.5390    0.7984    1.2623 C   0  0  0  0  0  0
    2.0055    0.6907    1.2624 C   0  0  0  0  0  0
    3.8027    3.0085    0.0001 C   0  0  0  0  0  0
   -0.4983    0.9008   -0.0003 H   0  0  0  0  0  0
   -0.4224   -0.6292    0.8860 H   0  0  0  0  0  0
   -0.4222   -0.6297   -0.8859 H   0  0  0  0  0  0
    1.8813   -1.0397    0.0001 H   0  0  0  0  0  0
    1.6701    0.1517   -2.1575 H   0  0  0  0  0  0
    1.5569    1.6922   -1.3238 H   0  0  0  0  0  0
    3.9608   -0.2151   -1.3146 H   0  0  0  0  0  0
    3.8820    1.3249   -2.1619 H   0  0  0  0  0  0
    5.1809    1.3761    0.0000 H   0  0  0  0  0  0
    3.9607   -0.2152    1.3144 H   0  0  0  0  0  0
    3.8821    1.3247    2.1619 H   0  0  0  0  0  0
    1.5569    1.6924    1.3237 H   0  0  0  0  0  0
    1.6701    0.1519    2.1575 H   0  0  0  0  0  0
    2.7305    3.2281    0.0005 H   0  0  0  0  0  0
    4.2346    3.4876   -0.8854 H   0  0  0  0  0  0
    4.2351    3.4875    0.8855 H   0  0  0  0  0  0
  1  2  1  0  0  0
  1  9  1  0  0  0
  1 10  1  0  0  0
  1 11  1  0  0  0
  2  7  1  0  0  0
  2  3  1  0  0  0
  2 12  1  0  0  0
  3  4  1  0  0  0
  3 13  1  0  0  0
  3 14  1  0  0  0
  4  5  1  0  0  0
  4 15  1  0  0  0
  4 16  1  0  0  0
  5  6  1  0  0  0
  5  8  1  0  0  0
  5 17  1  0  0  0
  6  7  1  0  0  0
  6 18  1  0  0  0
  6 19  1  0  0  0
  7 20  1  0  0  0
  7 21  1  0  0  0
  8 22  1  0  0  0
  8 23  1  0  0  0
  8 24  1  0  0  0
M  END
>  <i_m_Spin_multiplicity> (1)
1

>  <s_j_Task> (1)
Single Point

>  <s_j_QM_Method> (1)
DFT(b3lyp-d3)

>  <s_j_QM_Basis> (1)
cc-pvtz(-f)

>  <i_j_Number_of_canonical_orbitals> (1)
325

>  <i_j_Geometry_convergence_category> (1)
0

>  <r_j_Gas_Phase_Energy> (1)
-314.633251282232

>  <r_j_Final_Energy> (1)
-314.633251282232

>  <r_j_HOMO> (1)
-0.287156548570818

>  <r_j_LUMO> (1)
0.0307563246902334

>  <r_j_Polarizability> (1)
93.0570029205016

>  <r_j_QM_Dipole_(debye)> (1)
0.173652444672401

>  <r_j_QM_Dipole_X_(debye)> (1)
0.144495883900836

>  <r_j_QM_Dipole_Y_(debye)> (1)
-0.0963125560939486

>  <r_j_QM_Dipole_Z_(debye)> (1)
5.11377315071703e-05

>  <r_j_Lowest_Frequency_(cm-1)> (1)
130.048325028234

>  <r_j_Highest_Frequency_(cm-1)> (1)
3052.73632720071

>  <r_j_2nd_Lowest_Frequency_(cm-1)> (1)
240.408565506889

>  <i_j_Num_Negative_Frequencies> (1)
0

>  <r_j_Zero_Point_Energy_(kcal/mol)> (1)
141.620439371276

>  <r_j_Entropy_(cal/mol/K)_298.15K_1.00E+00atm> (1)
85.6278950346714

>  <r_j_Enthalpy_(kcal/mol)_298.15K_1.00E+00atm> (1)
5.65981115220187

>  <r_j_Free_Energy_(kcal/mol)_298.15K_1.00E+00atm> (1)
-19.8701457523854

>  <r_j_Internal_Energy_(kcal/mol)_298.15K_1.00E+00atm> (1)
5.06732556337459

>  <r_j_Heat_Capacity_(cal/mol/K)_298.15K_1.00E+00atm> (1)
33.2292358960455

>  <r_j_ln(Q)_298.15K_1.00E+00atm> (1)
33.5369266815671

>  <r_j_Total_Internal_Energy_(au)_298.15K_1.00E+00atm> (1)
-314.399489447634

>  <r_j_Total_Enthalpy_(au)_298.15K_1.00E+00atm> (1)
-314.398545261742

>  <r_j_Total_Free_Energy_(au)_298.15K_1.00E+00atm> (1)
-314.439229838031

>  <r_lp_tautomer_probability> (1)
1

>  <r_epik_Ionization_Penalty> (1)
  0.0000

>  <r_epik_Ionization_Penalty_Charging> (1)
  0.0000

>  <r_epik_Ionization_Penalty_Neutral> (1)
  0.0000

>  <r_epik_State_Penalty> (1)
  0.0000

>  <r_epik_Charging_Adjusted_Penalty> (1)
0

>  <i_epik_Tot_Q> (1)
0

>  <i_epik_Tot_abs_Q> (1)
0

>  <s_lp_Force_Field> (1)
S-OPLS

>  <r_lp_Energy> (1)
9.97677

>  <b_lp_Chiralities_Consistent> (1)
1

$$$$
