11535_1,2-butadiene
                    3D
 Schrodinger Suite 2021-3.
 10  9  0  0  1  0            999 V2000
   -0.0192    0.0158   -0.0120 C   0  0  0  0  0  0
    1.4757   -0.0615    0.1843 C   0  0  0  0  0  0
    2.2006   -1.1362    0.0004 C   0  0  0  0  0  0
    2.9196   -2.2138   -0.1864 C   0  0  0  0  0  0
   -0.2746    0.7689   -0.7675 H   0  0  0  0  0  0
   -0.5196    0.3112    0.9183 H   0  0  0  0  0  0
   -0.4284   -0.9452   -0.3325 H   0  0  0  0  0  0
    1.9788    0.8518    0.5051 H   0  0  0  0  0  0
    3.1036   -2.9212    0.6194 H   0  0  0  0  0  0
    3.3624   -2.4411   -1.1538 H   0  0  0  0  0  0
  1  2  1  0  0  0
  1  5  1  0  0  0
  1  6  1  0  0  0
  1  7  1  0  0  0
  2  3  2  0  0  0
  2  8  1  0  0  0
  3  4  2  0  0  0
  4  9  1  0  0  0
  4 10  1  0  0  0
M  END
>  <i_m_Spin_multiplicity> (1)
1

>  <s_j_Task> (1)
Single Point

>  <s_j_QM_Method> (1)
DFT(b3lyp-d3)

>  <s_j_QM_Basis> (1)
cc-pvtz(-f)

>  <i_j_Number_of_canonical_orbitals> (1)
144

>  <i_j_Geometry_convergence_category> (1)
1

>  <r_j_Gas_Phase_Energy> (1)
-156.035328016245

>  <r_j_Final_Energy> (1)
-156.035328016245

>  <r_j_HOMO> (1)
-0.26084471227713

>  <r_j_LUMO> (1)
-0.00110441981105577

>  <r_j_Polarizability> (1)
50.222327236754

>  <r_j_QM_Dipole_(debye)> (1)
0.431533058512829

>  <r_j_QM_Dipole_X_(debye)> (1)
-0.360607887319486

>  <r_j_QM_Dipole_Y_(debye)> (1)
0.236728455814578

>  <r_j_QM_Dipole_Z_(debye)> (1)
0.0119319068073321

>  <r_j_Lowest_Frequency_(cm-1)> (1)
230.51922065615

>  <r_j_Highest_Frequency_(cm-1)> (1)
3141.84086211916

>  <r_j_2nd_Lowest_Frequency_(cm-1)> (1)
245.830229420666

>  <i_j_Num_Negative_Frequencies> (1)
0

>  <r_j_Zero_Point_Energy_(kcal/mol)> (1)
52.4104787710793

>  <r_j_Entropy_(cal/mol/K)_298.15K_1.00E+00atm> (1)
68.2244017442515

>  <r_j_Enthalpy_(kcal/mol)_298.15K_1.00E+00atm> (1)
3.62403868955153

>  <r_j_Free_Energy_(kcal/mol)_298.15K_1.00E+00atm> (1)
-16.7170666904971

>  <r_j_Internal_Energy_(kcal/mol)_298.15K_1.00E+00atm> (1)
3.03155310072426

>  <r_j_Heat_Capacity_(cal/mol/K)_298.15K_1.00E+00atm> (1)
16.3919073483646

>  <r_j_ln(Q)_298.15K_1.00E+00atm> (1)
28.215144816578

>  <r_j_Total_Internal_Energy_(au)_298.15K_1.00E+00atm> (1)
-155.946975513977

>  <r_j_Total_Enthalpy_(au)_298.15K_1.00E+00atm> (1)
-155.946031328084

>  <r_j_Total_Free_Energy_(au)_298.15K_1.00E+00atm> (1)
-155.978446943071

>  <r_lp_tautomer_probability> (1)
1

>  <r_epik_Ionization_Penalty> (1)
  0.0000

>  <r_epik_Ionization_Penalty_Charging> (1)
  0.0000

>  <r_epik_Ionization_Penalty_Neutral> (1)
  0.0000

>  <r_epik_State_Penalty> (1)
  0.0000

>  <r_epik_Charging_Adjusted_Penalty> (1)
0

>  <i_epik_Tot_Q> (1)
0

>  <i_epik_Tot_abs_Q> (1)
0

>  <s_lp_Force_Field> (1)
S-OPLS

>  <r_lp_Energy> (1)
-20.1856

>  <b_lp_Chiralities_Consistent> (1)
1

$$$$
