11549_1,1-dimethylcyclohexane
                    3D
 Schrodinger Suite 2021-3.
 24 24  0  0  1  0            999 V2000
   -0.0331   -0.0223   -0.0413 C   0  0  0  0  0  0
    1.5020    0.0238    0.0435 C   0  0  0  0  0  0
    2.0558    0.7968   -1.1803 C   0  0  0  0  0  0
    3.5862    0.7353   -1.3100 C   0  0  0  0  0  0
    4.0830   -0.7181   -1.3357 C   0  0  0  0  0  0
    3.5865   -1.4971   -0.1083 C   0  0  0  0  0  0
    2.0562   -1.4231    0.0145 C   0  0  0  0  0  0
    1.8940    0.7304    1.3563 C   0  0  0  0  0  0
   -0.4585    0.9879   -0.0326 H   0  0  0  0  0  0
   -0.4580   -0.5714    0.8071 H   0  0  0  0  0  0
   -0.3648   -0.5177   -0.9610 H   0  0  0  0  0  0
    1.6125    0.3656   -2.0895 H   0  0  0  0  0  0
    1.7179    1.8404   -1.1364 H   0  0  0  0  0  0
    3.9012    1.2610   -2.2194 H   0  0  0  0  0  0
    4.0559    1.2659   -0.4715 H   0  0  0  0  0  0
    3.7076   -1.2081   -2.2459 H   0  0  0  0  0  0
    5.1777   -0.7484   -1.3923 H   0  0  0  0  0  0
    3.9018   -2.5456   -0.1701 H   0  0  0  0  0  0
    4.0561   -1.0892    0.7963 H   0  0  0  0  0  0
    1.7183   -1.9614    0.9097 H   0  0  0  0  0  0
    1.6129   -1.9445   -0.8463 H   0  0  0  0  0  0
    2.9767    0.8020    1.4899 H   0  0  0  0  0  0
    1.4905    0.1903    2.2204 H   0  0  0  0  0  0
    1.4910    1.7493    1.3810 H   0  0  0  0  0  0
  1  2  1  0  0  0
  1  9  1  0  0  0
  1 10  1  0  0  0
  1 11  1  0  0  0
  2  7  1  0  0  0
  2  3  1  0  0  0
  2  8  1  0  0  0
  3  4  1  0  0  0
  3 12  1  0  0  0
  3 13  1  0  0  0
  4  5  1  0  0  0
  4 14  1  0  0  0
  4 15  1  0  0  0
  5  6  1  0  0  0
  5 16  1  0  0  0
  5 17  1  0  0  0
  6  7  1  0  0  0
  6 18  1  0  0  0
  6 19  1  0  0  0
  7 20  1  0  0  0
  7 21  1  0  0  0
  8 22  1  0  0  0
  8 23  1  0  0  0
  8 24  1  0  0  0
M  END
>  <i_m_Spin_multiplicity> (1)
1

>  <s_j_Task> (1)
Single Point

>  <s_j_QM_Method> (1)
DFT(b3lyp-d3)

>  <s_j_QM_Basis> (1)
cc-pvtz(-f)

>  <i_j_Number_of_canonical_orbitals> (1)
325

>  <i_j_Geometry_convergence_category> (1)
0

>  <r_j_Gas_Phase_Energy> (1)
-314.633629188796

>  <r_j_Final_Energy> (1)
-314.633629188796

>  <r_j_HOMO> (1)
-0.290742306987405

>  <r_j_LUMO> (1)
0.0270399381352684

>  <r_j_Polarizability> (1)
92.9401002492913

>  <r_j_QM_Dipole_(debye)> (1)
0.121711919190583

>  <r_j_QM_Dipole_X_(debye)> (1)
0.116064661085417

>  <r_j_QM_Dipole_Y_(debye)> (1)
-0.0174512779861223

>  <r_j_QM_Dipole_Z_(debye)> (1)
-0.032221710333769

>  <r_j_Lowest_Frequency_(cm-1)> (1)
176.586308330631

>  <r_j_Highest_Frequency_(cm-1)> (1)
3060.85276268394

>  <r_j_2nd_Lowest_Frequency_(cm-1)> (1)
244.757517443488

>  <i_j_Num_Negative_Frequencies> (1)
0

>  <r_j_Zero_Point_Energy_(kcal/mol)> (1)
141.507008313446

>  <r_j_Entropy_(cal/mol/K)_298.15K_1.00E+00atm> (1)
84.6280343247814

>  <r_j_Enthalpy_(kcal/mol)_298.15K_1.00E+00atm> (1)
5.59369892336208

>  <r_j_Free_Energy_(kcal/mol)_298.15K_1.00E+00atm> (1)
-19.6381495105715

>  <r_j_Internal_Energy_(kcal/mol)_298.15K_1.00E+00atm> (1)
5.0012133345348

>  <r_j_Heat_Capacity_(cal/mol/K)_298.15K_1.00E+00atm> (1)
33.4924687486426

>  <r_j_ln(Q)_298.15K_1.00E+00atm> (1)
33.145362319178

>  <r_j_Total_Internal_Energy_(au)_298.15K_1.00E+00atm> (1)
-314.40015347464

>  <r_j_Total_Enthalpy_(au)_298.15K_1.00E+00atm> (1)
-314.399209288748

>  <r_j_Total_Free_Energy_(au)_298.15K_1.00E+00atm> (1)
-314.439418798947

>  <r_lp_tautomer_probability> (1)
1

>  <r_epik_Ionization_Penalty> (1)
  0.0000

>  <r_epik_Ionization_Penalty_Charging> (1)
  0.0000

>  <r_epik_Ionization_Penalty_Neutral> (1)
  0.0000

>  <r_epik_State_Penalty> (1)
  0.0000

>  <r_epik_Charging_Adjusted_Penalty> (1)
0

>  <i_epik_Tot_Q> (1)
0

>  <i_epik_Tot_abs_Q> (1)
0

>  <s_lp_Force_Field> (1)
S-OPLS

>  <r_lp_Energy> (1)
13.6582

>  <b_lp_Chiralities_Consistent> (1)
1

$$$$
