11564_Cis-1,3-dimethylcyclohexane
                    3D
 Schrodinger Suite 2021-3.
 24 24  0  0  1  0            999 V2000
   -0.0388   -0.0372   -0.0092 C   0  0  0  0  0  0
    1.4922    0.0162   -0.0103 C   0  0  1  0  0  0
    2.0352    0.6987   -1.2784 C   0  0  0  0  0  0
    3.5685    0.7789   -1.2751 C   0  0  0  0  0  0
    4.0875    1.4787   -0.0108 C   0  0  0  0  0  0
    3.5696    0.8058    1.2728 C   0  0  2  0  0  0
    2.0331    0.7227    1.2454 C   0  0  0  0  0  0
    4.0710    1.5248    2.5292 C   0  0  0  0  0  0
   -0.4627    0.9745   -0.0190 H   0  0  0  0  0  0
   -0.4199   -0.5484    0.8818 H   0  0  0  0  0  0
   -0.4201   -0.5659   -0.8899 H   0  0  0  0  0  0
    1.8726   -1.0176   -0.0004 H   0  0  0  0  0  0
    1.6820    0.1661   -2.1704 H   0  0  0  0  0  0
    1.6186    1.7157   -1.3366 H   0  0  0  0  0  0
    3.9831   -0.2383   -1.3204 H   0  0  0  0  0  0
    3.9241    1.3003   -2.1717 H   0  0  0  0  0  0
    5.1846    1.4974   -0.0070 H   0  0  0  0  0  0
    3.7573    2.5285   -0.0156 H   0  0  0  0  0  0
    3.9584   -0.2249    1.2879 H   0  0  0  0  0  0
    1.6215    1.7438    1.2834 H   0  0  0  0  0  0
    1.6710    0.2106    2.1469 H   0  0  0  0  0  0
    3.7066    2.5591    2.5561 H   0  0  0  0  0  0
    5.1658    1.5571    2.5602 H   0  0  0  0  0  0
    3.7226    1.0262    3.4405 H   0  0  0  0  0  0
  1  2  1  0  0  0
  1  9  1  0  0  0
  1 10  1  0  0  0
  1 11  1  0  0  0
  2  7  1  0  0  0
  2  3  1  0  0  0
  2 12  1  0  0  0
  3  4  1  0  0  0
  3 13  1  0  0  0
  3 14  1  0  0  0
  4  5  1  0  0  0
  4 15  1  0  0  0
  4 16  1  0  0  0
  5  6  1  0  0  0
  5 17  1  0  0  0
  5 18  1  0  0  0
  6  7  1  0  0  0
  6  8  1  0  0  0
  6 19  1  0  0  0
  7 20  1  0  0  0
  7 21  1  0  0  0
  8 22  1  0  0  0
  8 23  1  0  0  0
  8 24  1  0  0  0
M  END
> <i_m_Spin_multiplicity>
1

> <s_j_Task>
Single Point

> <s_j_QM_Method>
DFT(b3lyp-d3)

> <s_j_QM_Basis>
cc-pvtz(-f)

> <i_j_Number_of_canonical_orbitals>
325

> <i_j_Geometry_convergence_category>
3

> <r_j_Gas_Phase_Energy>
-314.636019500952

> <r_j_Final_Energy>
-314.636019500952

> <r_j_HOMO>
-0.290783804723469

> <r_j_LUMO>
0.0312618130723013

> <r_j_Polarizability>
94.1726106132543

> <r_j_QM_Dipole_(debye)>
0.18496732941334

> <r_j_QM_Dipole_X_(debye)>
0.0970361693428135

> <r_j_QM_Dipole_Y_(debye)>
-0.140776135622564

> <r_j_QM_Dipole_Z_(debye)>
-0.0705618482521081

> <r_j_Lowest_Frequency_(cm-1)>
178.242254700885

> <r_j_Highest_Frequency_(cm-1)>
3042.18179571026

> <r_j_2nd_Lowest_Frequency_(cm-1)>
179.489201468367

> <i_j_Num_Negative_Frequencies>
0

> <r_j_Zero_Point_Energy_(kcal/mol)>
141.421676031037

> <r_j_Entropy_(cal/mol/K)_298.15K_1.00E+00atm>
85.9697129499406

> <r_j_Enthalpy_(kcal/mol)_298.15K_1.00E+00atm>
5.70382372916862

> <r_j_Free_Energy_(kcal/mol)_298.15K_1.00E+00atm>
-19.9280461868562

> <r_j_Internal_Energy_(kcal/mol)_298.15K_1.00E+00atm>
5.11133814034135

> <r_j_Heat_Capacity_(cal/mol/K)_298.15K_1.00E+00atm>
33.3716925211657

> <r_j_ln(Q)_298.15K_1.00E+00atm>
33.6346513107608

> <r_j_Total_Internal_Energy_(au)_298.15K_1.00E+00atm>
-314.402504277394

> <r_j_Total_Enthalpy_(au)_298.15K_1.00E+00atm>
-314.401560091502

> <r_j_Total_Free_Energy_(au)_298.15K_1.00E+00atm>
-314.442407076514

> <r_lp_tautomer_probability>
1

> <r_epik_Ionization_Penalty>
  0.0000

> <r_epik_Ionization_Penalty_Charging>
  0.0000

> <r_epik_Ionization_Penalty_Neutral>
  0.0000

> <r_epik_State_Penalty>
  0.0000

> <r_epik_Charging_Adjusted_Penalty>
0

> <i_epik_Tot_Q>
0

> <i_epik_Tot_abs_Q>
0

> <s_lp_Force_Field>
S-OPLS

> <r_lp_Energy>
8.26642

> <b_lp_Chiralities_Consistent>
1

$$$$
