11574_1-Methylcyclohexene
                    3D
 Schrodinger Suite 2021-3.
 19 19  0  0  1  0            999 V2000
   -0.0098    0.0381    0.0089 C   0  0  0  0  0  0
    1.4943   -0.0423   -0.0040 C   0  0  0  0  0  0
    2.1514   -1.2055    0.0847 C   0  0  0  0  0  0
    3.6540   -1.3378    0.1130 C   0  0  0  0  0  0
    4.3477    0.0054    0.3826 C   0  0  0  0  0  0
    3.7124    1.1130   -0.4661 C   0  0  0  0  0  0
    2.2271    1.2794   -0.1141 C   0  0  0  0  0  0
   -0.3609    0.6782    0.8298 H   0  0  0  0  0  0
   -0.4737   -0.9458    0.1257 H   0  0  0  0  0  0
   -0.3901    0.4881   -0.9179 H   0  0  0  0  0  0
    1.5796   -2.1316    0.1409 H   0  0  0  0  0  0
    3.9459   -2.0753    0.8724 H   0  0  0  0  0  0
    4.0030   -1.7522   -0.8458 H   0  0  0  0  0  0
    4.2395    0.2618    1.4450 H   0  0  0  0  0  0
    5.4219   -0.0739    0.1820 H   0  0  0  0  0  0
    4.2416    2.0628   -0.3303 H   0  0  0  0  0  0
    3.8046    0.8472   -1.5278 H   0  0  0  0  0  0
    1.7287    1.9102   -0.8631 H   0  0  0  0  0  0
    2.1241    1.8230    0.8379 H   0  0  0  0  0  0
  1  2  1  0  0  0
  1  8  1  0  0  0
  1  9  1  0  0  0
  1 10  1  0  0  0
  2  7  1  0  0  0
  2  3  2  0  0  0
  3  4  1  0  0  0
  3 11  1  0  0  0
  4  5  1  0  0  0
  4 12  1  0  0  0
  4 13  1  0  0  0
  5  6  1  0  0  0
  5 14  1  0  0  0
  5 15  1  0  0  0
  6  7  1  0  0  0
  6 16  1  0  0  0
  6 17  1  0  0  0
  7 18  1  0  0  0
  7 19  1  0  0  0
M  END
>  <i_m_Spin_multiplicity> (1)
1

>  <s_j_Task> (1)
Single Point

>  <s_j_QM_Method> (1)
DFT(b3lyp-d3)

>  <s_j_QM_Basis> (1)
cc-pvtz(-f)

>  <i_j_Number_of_canonical_orbitals> (1)
267

>  <i_j_Geometry_convergence_category> (1)
3

>  <r_j_Gas_Phase_Energy> (1)
-274.071884606905

>  <r_j_Final_Energy> (1)
-274.071884606905

>  <r_j_HOMO> (1)
-0.234707314621412

>  <r_j_LUMO> (1)
0.0173414241995305

>  <r_j_Polarizability> (1)
80.9693292394657

>  <r_j_QM_Dipole_(debye)> (1)
0.25993198641116

>  <r_j_QM_Dipole_X_(debye)> (1)
0.0974192726292514

>  <r_j_QM_Dipole_Y_(debye)> (1)
0.240779335946219

>  <r_j_QM_Dipole_Z_(debye)> (1)
-0.00997167294575744

>  <r_j_Lowest_Frequency_(cm-1)> (1)
157.876841765603

>  <r_j_Highest_Frequency_(cm-1)> (1)
3085.02746266346

>  <r_j_2nd_Lowest_Frequency_(cm-1)> (1)
244.694889706451

>  <i_j_Num_Negative_Frequencies> (1)
0

>  <r_j_Zero_Point_Energy_(kcal/mol)> (1)
108.744090107958

>  <r_j_Entropy_(cal/mol/K)_298.15K_1.00E+00atm> (1)
79.6876813790839

>  <r_j_Enthalpy_(kcal/mol)_298.15K_1.00E+00atm> (1)
4.82164043090745

>  <r_j_Free_Energy_(kcal/mol)_298.15K_1.00E+00atm> (1)
-18.9372417722664

>  <r_j_Internal_Energy_(kcal/mol)_298.15K_1.00E+00atm> (1)
4.22915484208018

>  <r_j_Heat_Capacity_(cal/mol/K)_298.15K_1.00E+00atm> (1)
26.8030580337477

>  <r_j_ln(Q)_298.15K_1.00E+00atm> (1)
31.9623668986608

>  <r_j_Total_Internal_Energy_(au)_298.15K_1.00E+00atm> (1)
-273.891850280172

>  <r_j_Total_Enthalpy_(au)_298.15K_1.00E+00atm> (1)
-273.89090609428

>  <r_j_Total_Free_Energy_(au)_298.15K_1.00E+00atm> (1)
-273.92876828336

>  <r_lp_tautomer_probability> (1)
1

>  <r_epik_Ionization_Penalty> (1)
  0.0000

>  <r_epik_Ionization_Penalty_Charging> (1)
  0.0000

>  <r_epik_Ionization_Penalty_Neutral> (1)
  0.0000

>  <r_epik_State_Penalty> (1)
  0.0000

>  <r_epik_Charging_Adjusted_Penalty> (1)
0

>  <i_epik_Tot_Q> (1)
0

>  <i_epik_Tot_abs_Q> (1)
0

>  <s_lp_Force_Field> (1)
S-OPLS

>  <r_lp_Energy> (1)
2.8365

>  <b_lp_Chiralities_Consistent> (1)
1

$$$$
