11592_2,5-dimethylhexane
                    3D
 Schrodinger Suite 2021-3.
 26 25  0  0  1  0            999 V2000
   -0.1055    2.3974    1.1821 C   0  0  0  0  0  0
   -0.5568    1.4912    0.0273 C   0  0  0  0  0  0
   -2.0882    1.4789   -0.0791 C   0  0  0  0  0  0
   -0.0154    0.0556    0.1659 C   0  0  0  0  0  0
    1.5154   -0.0556    0.1657 C   0  0  0  0  0  0
    2.0568   -1.4912    0.0272 C   0  0  0  0  0  0
    1.6055   -2.3973    1.1821 C   0  0  0  0  0  0
    3.5883   -1.4789   -0.0790 C   0  0  0  0  0  0
   -0.4441    1.9932    2.1445 H   0  0  0  0  0  0
   -0.5257    3.4038    1.0785 H   0  0  0  0  0  0
    0.9832    2.4961    1.2257 H   0  0  0  0  0  0
   -0.1551    1.9097   -0.9083 H   0  0  0  0  0  0
   -2.5374    1.0725    0.8357 H   0  0  0  0  0  0
   -2.4264    0.8610   -0.9182 H   0  0  0  0  0  0
   -2.4862    2.4894   -0.2230 H   0  0  0  0  0  0
   -0.4239   -0.3822    1.0871 H   0  0  0  0  0  0
   -0.4141   -0.5494   -0.6612 H   0  0  0  0  0  0
    1.9140    0.5494   -0.6614 H   0  0  0  0  0  0
    1.9241    0.3823    1.0868 H   0  0  0  0  0  0
    1.6552   -1.9098   -0.9084 H   0  0  0  0  0  0
    1.9440   -1.9931    2.1445 H   0  0  0  0  0  0
    2.0256   -3.4037    1.0785 H   0  0  0  0  0  0
    0.5167   -2.4960    1.2256 H   0  0  0  0  0  0
    4.0373   -1.0724    0.8358 H   0  0  0  0  0  0
    3.9265   -0.8610   -0.9182 H   0  0  0  0  0  0
    3.9862   -2.4894   -0.2228 H   0  0  0  0  0  0
  1  2  1  0  0  0
  1  9  1  0  0  0
  1 10  1  0  0  0
  1 11  1  0  0  0
  2  3  1  0  0  0
  2  4  1  0  0  0
  2 12  1  0  0  0
  3 13  1  0  0  0
  3 14  1  0  0  0
  3 15  1  0  0  0
  4  5  1  0  0  0
  4 16  1  0  0  0
  4 17  1  0  0  0
  5  6  1  0  0  0
  5 18  1  0  0  0
  5 19  1  0  0  0
  6  7  1  0  0  0
  6  8  1  0  0  0
  6 20  1  0  0  0
  7 21  1  0  0  0
  7 22  1  0  0  0
  7 23  1  0  0  0
  8 24  1  0  0  0
  8 25  1  0  0  0
  8 26  1  0  0  0
M  END
>  <i_m_Spin_multiplicity> (1)
1

>  <s_j_Task> (1)
Single Point

>  <s_j_QM_Method> (1)
DFT(b3lyp-d3)

>  <s_j_QM_Basis> (1)
cc-pvtz(-f)

>  <i_j_Number_of_canonical_orbitals> (1)
343

>  <i_j_Geometry_convergence_category> (1)
0

>  <r_j_Gas_Phase_Energy> (1)
-315.842568940997

>  <r_j_Final_Energy> (1)
-315.842568940997

>  <r_j_HOMO> (1)
-0.30552237535898

>  <r_j_LUMO> (1)
0.024713870412534

>  <r_j_Polarizability> (1)
99.243898907078

>  <r_j_QM_Dipole_(debye)> (1)
0.16065853264611

>  <r_j_QM_Dipole_X_(debye)> (1)
-4.59840995804045e-05

>  <r_j_QM_Dipole_Y_(debye)> (1)
2.35410027374726e-06

>  <r_j_QM_Dipole_Z_(debye)> (1)
-0.160658526048019

>  <r_j_Lowest_Frequency_(cm-1)> (1)
83.086435275063

>  <r_j_Highest_Frequency_(cm-1)> (1)
3054.46219314074

>  <r_j_2nd_Lowest_Frequency_(cm-1)> (1)
108.490531297213

>  <i_j_Num_Negative_Frequencies> (1)
0

>  <r_j_Zero_Point_Energy_(kcal/mol)> (1)
153.717140964414

>  <r_j_Entropy_(cal/mol/K)_298.15K_1.00E+00atm> (1)
94.2807818081266

>  <r_j_Enthalpy_(kcal/mol)_298.15K_1.00E+00atm> (1)
6.96753153513327

>  <r_j_Free_Energy_(kcal/mol)_298.15K_1.00E+00atm> (1)
-21.1422835609597

>  <r_j_Internal_Energy_(kcal/mol)_298.15K_1.00E+00atm> (1)
6.375045946306

>  <r_j_Heat_Capacity_(cal/mol/K)_298.15K_1.00E+00atm> (1)
39.065773746867

>  <r_j_ln(Q)_298.15K_1.00E+00atm> (1)
35.68404693658

>  <r_j_Total_Internal_Energy_(au)_298.15K_1.00E+00atm> (1)
-315.587445800129

>  <r_j_Total_Enthalpy_(au)_298.15K_1.00E+00atm> (1)
-315.586501614237

>  <r_j_Total_Free_Energy_(au)_298.15K_1.00E+00atm> (1)
-315.631297456276

>  <r_lp_tautomer_probability> (1)
1

>  <r_epik_Ionization_Penalty> (1)
  0.0000

>  <r_epik_Ionization_Penalty_Charging> (1)
  0.0000

>  <r_epik_Ionization_Penalty_Neutral> (1)
  0.0000

>  <r_epik_State_Penalty> (1)
  0.0000

>  <r_epik_Charging_Adjusted_Penalty> (1)
0

>  <i_epik_Tot_Q> (1)
0

>  <i_epik_Tot_abs_Q> (1)
0

>  <s_lp_Force_Field> (1)
S-OPLS

>  <r_lp_Energy> (1)
3.62807

>  <b_lp_Chiralities_Consistent> (1)
1

$$$$
