11594_2-methylheptane
                    3D
 Schrodinger Suite 2021-3.
 26 25  0  0  1  0            999 V2000
   -2.6185    2.9879   -0.0945 C   0  0  0  0  0  0
   -2.1008    1.5483   -0.0215 C   0  0  0  0  0  0
   -0.5704    1.4606    0.0032 C   0  0  0  0  0  0
   -0.0445    0.0219    0.0692 C   0  0  0  0  0  0
    1.4865   -0.0582    0.1044 C   0  0  0  0  0  0
    2.0687   -1.4831    0.0491 C   0  0  0  0  0  0
    1.6476   -2.3335    1.2566 C   0  0  0  0  0  0
    3.5992   -1.4332   -0.0624 C   0  0  0  0  0  0
   -3.7128    3.0226   -0.1106 H   0  0  0  0  0  0
   -2.2553    3.4918   -0.9977 H   0  0  0  0  0  0
   -2.2786    3.5730    0.7678 H   0  0  0  0  0  0
   -2.5051    1.0565    0.8738 H   0  0  0  0  0  0
   -2.4811    0.9764   -0.8789 H   0  0  0  0  0  0
   -0.1640    1.9575   -0.8895 H   0  0  0  0  0  0
   -0.1883    2.0280    0.8642 H   0  0  0  0  0  0
   -0.4676   -0.4700    0.9544 H   0  0  0  0  0  0
   -0.4174   -0.5405   -0.7991 H   0  0  0  0  0  0
    1.8878    0.5165   -0.7422 H   0  0  0  0  0  0
    1.8569    0.4426    1.0116 H   0  0  0  0  0  0
    1.6782   -1.9668   -0.8593 H   0  0  0  0  0  0
    1.9804   -1.8661    2.1920 H   0  0  0  0  0  0
    2.0942   -3.3325    1.2076 H   0  0  0  0  0  0
    0.5624   -2.4594    1.3139 H   0  0  0  0  0  0
    4.0372   -0.9577    0.8241 H   0  0  0  0  0  0
    3.9185   -0.8593   -0.9392 H   0  0  0  0  0  0
    4.0261   -2.4386   -0.1441 H   0  0  0  0  0  0
  1  2  1  0  0  0
  1  9  1  0  0  0
  1 10  1  0  0  0
  1 11  1  0  0  0
  2  3  1  0  0  0
  2 12  1  0  0  0
  2 13  1  0  0  0
  3  4  1  0  0  0
  3 14  1  0  0  0
  3 15  1  0  0  0
  4  5  1  0  0  0
  4 16  1  0  0  0
  4 17  1  0  0  0
  5  6  1  0  0  0
  5 18  1  0  0  0
  5 19  1  0  0  0
  6  7  1  0  0  0
  6  8  1  0  0  0
  6 20  1  0  0  0
  7 21  1  0  0  0
  7 22  1  0  0  0
  7 23  1  0  0  0
  8 24  1  0  0  0
  8 25  1  0  0  0
  8 26  1  0  0  0
M  END
>  <i_m_Spin_multiplicity> (1)
1

>  <s_j_Task> (1)
Single Point

>  <s_j_QM_Method> (1)
DFT(b3lyp-d3)

>  <s_j_QM_Basis> (1)
cc-pvtz(-f)

>  <i_j_Number_of_canonical_orbitals> (1)
344

>  <i_j_Geometry_convergence_category> (1)
3

>  <r_j_Gas_Phase_Energy> (1)
-315.841808326396

>  <r_j_Final_Energy> (1)
-315.841808326396

>  <r_j_HOMO> (1)
-0.302874729439557

>  <r_j_LUMO> (1)
0.0241786324354539

>  <r_j_Polarizability> (1)
100.156782950433

>  <r_j_QM_Dipole_(debye)> (1)
0.129540931836155

>  <r_j_QM_Dipole_X_(debye)> (1)
-0.077968334164825

>  <r_j_QM_Dipole_Y_(debye)> (1)
-0.066328663410024

>  <r_j_QM_Dipole_Z_(debye)> (1)
-0.0793870285297375

>  <r_j_Lowest_Frequency_(cm-1)> (1)
84.2457381287098

>  <r_j_Highest_Frequency_(cm-1)> (1)
3054.81326254058

>  <r_j_2nd_Lowest_Frequency_(cm-1)> (1)
113.111132951565

>  <i_j_Num_Negative_Frequencies> (1)
0

>  <r_j_Zero_Point_Energy_(kcal/mol)> (1)
153.88204685451

>  <r_j_Entropy_(cal/mol/K)_298.15K_1.00E+00atm> (1)
96.7796119941783

>  <r_j_Enthalpy_(kcal/mol)_298.15K_1.00E+00atm> (1)
7.0363950913052

>  <r_j_Free_Energy_(kcal/mol)_298.15K_1.00E+00atm> (1)
-21.8184462247591

>  <r_j_Internal_Energy_(kcal/mol)_298.15K_1.00E+00atm> (1)
6.44390950247793

>  <r_j_Heat_Capacity_(cal/mol/K)_298.15K_1.00E+00atm> (1)
38.6370366261208

>  <r_j_ln(Q)_298.15K_1.00E+00atm> (1)
36.8252775024368

>  <r_j_Total_Internal_Energy_(au)_298.15K_1.00E+00atm> (1)
-315.5863126502

>  <r_j_Total_Enthalpy_(au)_298.15K_1.00E+00atm> (1)
-315.585368464308

>  <r_j_Total_Free_Energy_(au)_298.15K_1.00E+00atm> (1)
-315.63135158121

>  <r_lp_tautomer_probability> (1)
1

>  <r_epik_Ionization_Penalty> (1)
  0.0000

>  <r_epik_Ionization_Penalty_Charging> (1)
  0.0000

>  <r_epik_Ionization_Penalty_Neutral> (1)
  0.0000

>  <r_epik_State_Penalty> (1)
  0.0000

>  <r_epik_Charging_Adjusted_Penalty> (1)
0

>  <i_epik_Tot_Q> (1)
0

>  <i_epik_Tot_abs_Q> (1)
0

>  <s_lp_Force_Field> (1)
S-OPLS

>  <r_lp_Energy> (1)
3.333592

>  <b_lp_Chiralities_Consistent> (1)
1

$$$$
