11610_1-heptene
                    3D
 Schrodinger Suite 2021-3.
 21 20  0  0  1  0            999 V2000
   -2.0730    1.5120   -0.0405 C   0  0  0  0  0  0
   -0.5438    1.4344   -0.0792 C   0  0  0  0  0  0
   -0.0135    0.0024    0.0576 C   0  0  0  0  0  0
    1.5156   -0.0872    0.0154 C   0  0  0  0  0  0
    2.0389   -1.5299    0.1425 C   0  0  0  0  0  0
    3.5404   -1.6063    0.1401 C   0  0  0  0  0  0
    4.2801   -2.2443   -0.7667 C   0  0  0  0  0  0
   -2.4270    2.5432   -0.1410 H   0  0  0  0  0  0
   -2.4640    1.1153    0.9035 H   0  0  0  0  0  0
   -2.5177    0.9258   -0.8530 H   0  0  0  0  0  0
   -0.1766    1.8668   -1.0199 H   0  0  0  0  0  0
   -0.1227    2.0542    0.7241 H   0  0  0  0  0  0
   -0.3784   -0.4317    0.9998 H   0  0  0  0  0  0
   -0.4367   -0.6189   -0.7448 H   0  0  0  0  0  0
    1.8863    0.3458   -0.9231 H   0  0  0  0  0  0
    1.9403    0.5263    0.8225 H   0  0  0  0  0  0
    1.6527   -1.9601    1.0789 H   0  0  0  0  0  0
    1.6327   -2.1421   -0.6728 H   0  0  0  0  0  0
    4.0402   -1.0724    0.9503 H   0  0  0  0  0  0
    3.8250   -2.7855   -1.5932 H   0  0  0  0  0  0
    5.3651   -2.2521   -0.7190 H   0  0  0  0  0  0
  1  2  1  0  0  0
  1  8  1  0  0  0
  1  9  1  0  0  0
  1 10  1  0  0  0
  2  3  1  0  0  0
  2 11  1  0  0  0
  2 12  1  0  0  0
  3  4  1  0  0  0
  3 13  1  0  0  0
  3 14  1  0  0  0
  4  5  1  0  0  0
  4 15  1  0  0  0
  4 16  1  0  0  0
  5  6  1  0  0  0
  5 17  1  0  0  0
  5 18  1  0  0  0
  6  7  2  0  0  0
  6 19  1  0  0  0
  7 20  1  0  0  0
  7 21  1  0  0  0
M  END
>  <i_m_Spin_multiplicity> (1)
1

>  <s_j_Task> (1)
Single Point

>  <s_j_QM_Method> (1)
DFT(b3lyp-d3)

>  <s_j_QM_Basis> (1)
cc-pvtz(-f)

>  <i_j_Number_of_canonical_orbitals> (1)
285

>  <i_j_Geometry_convergence_category> (1)
3

>  <r_j_Gas_Phase_Energy> (1)
-275.273559633994

>  <r_j_Final_Energy> (1)
-275.273559633994

>  <r_j_HOMO> (1)
-0.266208657944759

>  <r_j_LUMO> (1)
0.000947125335936676

>  <r_j_Polarizability> (1)
87.1134912386044

>  <r_j_QM_Dipole_(debye)> (1)
0.435932508705074

>  <r_j_QM_Dipole_X_(debye)> (1)
-0.335771561677595

>  <r_j_QM_Dipole_Y_(debye)> (1)
0.237714672735731

>  <r_j_QM_Dipole_Z_(debye)> (1)
0.144174702637575

>  <r_j_Lowest_Frequency_(cm-1)> (1)
88.8987745304781

>  <r_j_Highest_Frequency_(cm-1)> (1)
3167.74884585257

>  <r_j_2nd_Lowest_Frequency_(cm-1)> (1)
116.977370355976

>  <i_j_Num_Negative_Frequencies> (1)
0

>  <r_j_Zero_Point_Energy_(kcal/mol)> (1)
121.421470679125

>  <r_j_Entropy_(cal/mol/K)_298.15K_1.00E+00atm> (1)
89.5478238755287

>  <r_j_Enthalpy_(kcal/mol)_298.15K_1.00E+00atm> (1)
6.03197393183017

>  <r_j_Free_Energy_(kcal/mol)_298.15K_1.00E+00atm> (1)
-20.6667097566587

>  <r_j_Internal_Energy_(kcal/mol)_298.15K_1.00E+00atm> (1)
5.4394883430029

>  <r_j_Heat_Capacity_(cal/mol/K)_298.15K_1.00E+00atm> (1)
31.5950888901634

>  <r_j_ln(Q)_298.15K_1.00E+00atm> (1)
34.8813712035848

>  <r_j_Total_Internal_Energy_(au)_298.15K_1.00E+00atm> (1)
-275.071393826006

>  <r_j_Total_Enthalpy_(au)_298.15K_1.00E+00atm> (1)
-275.070449640114

>  <r_j_Total_Free_Energy_(au)_298.15K_1.00E+00atm> (1)
-275.112996701099

>  <r_lp_tautomer_probability> (1)
1

>  <r_epik_Ionization_Penalty> (1)
  0.0000

>  <r_epik_Ionization_Penalty_Charging> (1)
  0.0000

>  <r_epik_Ionization_Penalty_Neutral> (1)
  0.0000

>  <r_epik_State_Penalty> (1)
  0.0000

>  <r_epik_Charging_Adjusted_Penalty> (1)
0

>  <i_epik_Tot_Q> (1)
0

>  <i_epik_Tot_abs_Q> (1)
0

>  <s_lp_Force_Field> (1)
S-OPLS

>  <r_lp_Energy> (1)
-0.195439

>  <b_lp_Chiralities_Consistent> (1)
1

$$$$
