11622_2-Tridecanone
                    3D
 Schrodinger Suite 2021-3.
 40 39  0  0  1  0            999 V2000
   -0.6653    6.0660    2.4317 C   0  0  0  0  0  0
   -0.1811    4.6134    2.4588 C   0  0  0  0  0  0
   -0.5453    3.8331    1.1900 C   0  0  0  0  0  0
   -0.0615    2.3791    1.2149 C   0  0  0  0  0  0
   -0.4284    1.5920   -0.0504 C   0  0  0  0  0  0
   -0.0283    0.1088   -0.0055 C   0  0  0  0  0  0
    1.4886   -0.1324   -0.0013 C   0  0  0  0  0  0
    1.8905   -1.6157    0.0002 C   0  0  0  0  0  0
    1.5277   -2.3592    1.2927 C   0  0  0  0  0  0
    2.0118   -3.8129    1.3034 C   0  0  0  0  0  0
    1.6467   -4.5502    2.6087 C   0  0  0  0  0  0
    2.1221   -5.9957    2.5531 C   0  0  0  0  0  0
    1.4293   -6.8671    2.0621 O   0  0  0  0  0  0
    3.5109   -6.2828    3.0952 C   0  0  0  0  0  0
   -0.3935    6.5986    3.3490 H   0  0  0  0  0  0
   -1.7553    6.1161    2.3272 H   0  0  0  0  0  0
   -0.2284    6.6114    1.5872 H   0  0  0  0  0  0
    0.9088    4.5912    2.5957 H   0  0  0  0  0  0
   -0.6064    4.0999    3.3320 H   0  0  0  0  0  0
   -1.6359    3.8533    1.0515 H   0  0  0  0  0  0
   -0.1201    4.3443    0.3142 H   0  0  0  0  0  0
    1.0267    2.3697    1.3602 H   0  0  0  0  0  0
   -0.4885    1.8696    2.0912 H   0  0  0  0  0  0
   -1.5133    1.6631   -0.2069 H   0  0  0  0  0  0
    0.0362    2.0702   -0.9247 H   0  0  0  0  0  0
   -0.4836   -0.3511    0.8815 H   0  0  0  0  0  0
   -0.4617   -0.4085   -0.8725 H   0  0  0  0  0  0
    1.9225    0.3561   -0.8844 H   0  0  0  0  0  0
    1.9435    0.3563    0.8702 H   0  0  0  0  0  0
    1.4229   -2.1239   -0.8551 H   0  0  0  0  0  0
    2.9752   -1.6915   -0.1568 H   0  0  0  0  0  0
    1.9605   -1.8245    2.1506 H   0  0  0  0  0  0
    0.4409   -2.3472    1.4427 H   0  0  0  0  0  0
    1.5724   -4.3588    0.4594 H   0  0  0  0  0  0
    3.1007   -3.8366    1.1571 H   0  0  0  0  0  0
    2.0918   -4.0268    3.4641 H   0  0  0  0  0  0
    0.5590   -4.5576    2.7320 H   0  0  0  0  0  0
    3.5123   -6.1520    4.1844 H   0  0  0  0  0  0
    4.2413   -5.5731    2.6901 H   0  0  0  0  0  0
    3.8045   -7.3047    2.8518 H   0  0  0  0  0  0
  1  2  1  0  0  0
  1 15  1  0  0  0
  1 16  1  0  0  0
  1 17  1  0  0  0
  2  3  1  0  0  0
  2 18  1  0  0  0
  2 19  1  0  0  0
  3  4  1  0  0  0
  3 20  1  0  0  0
  3 21  1  0  0  0
  4  5  1  0  0  0
  4 22  1  0  0  0
  4 23  1  0  0  0
  5  6  1  0  0  0
  5 24  1  0  0  0
  5 25  1  0  0  0
  6  7  1  0  0  0
  6 26  1  0  0  0
  6 27  1  0  0  0
  7  8  1  0  0  0
  7 28  1  0  0  0
  7 29  1  0  0  0
  8  9  1  0  0  0
  8 30  1  0  0  0
  8 31  1  0  0  0
  9 10  1  0  0  0
  9 32  1  0  0  0
  9 33  1  0  0  0
 10 11  1  0  0  0
 10 34  1  0  0  0
 10 35  1  0  0  0
 11 12  1  0  0  0
 11 36  1  0  0  0
 11 37  1  0  0  0
 12 13  2  0  0  0
 12 14  1  0  0  0
 14 38  1  0  0  0
 14 39  1  0  0  0
 14 40  1  0  0  0
M  END
>  <i_m_Spin_multiplicity> (1)
1

>  <s_j_Task> (1)
Single Point

>  <s_j_QM_Method> (1)
DFT(b3lyp-d3)

>  <s_j_QM_Basis> (1)
cc-pvtz(-f)

>  <i_j_Number_of_canonical_orbitals> (1)
552

>  <i_j_Geometry_convergence_category> (1)
0

>  <r_j_Gas_Phase_Energy> (1)
-586.524423032563

>  <r_j_Final_Energy> (1)
-586.524423032563

>  <r_j_HOMO> (1)
-0.29183391164796

>  <r_j_LUMO> (1)
-0.0647967504854306

>  <r_j_Polarizability> (1)
162.291516140377

>  <r_j_QM_Dipole_(debye)> (1)
2.95298991748386

>  <r_j_QM_Dipole_X_(debye)> (1)
1.52706727466744

>  <r_j_QM_Dipole_Y_(debye)> (1)
2.38100367444567

>  <r_j_QM_Dipole_Z_(debye)> (1)
0.8479601958095

>  <r_j_Lowest_Frequency_(cm-1)> (1)
36.4404671672815

>  <r_j_Highest_Frequency_(cm-1)> (1)
3099.99038137583

>  <r_j_2nd_Lowest_Frequency_(cm-1)> (1)
64.7744559741867

>  <i_j_Num_Negative_Frequencies> (1)
0

>  <r_j_Zero_Point_Energy_(kcal/mol)> (1)
231.655738903473

>  <r_j_Entropy_(cal/mol/K)_298.15K_1.00E+00atm> (1)
129.672382846879

>  <r_j_Enthalpy_(kcal/mol)_298.15K_1.00E+00atm> (1)
11.1853622863506

>  <r_j_Free_Energy_(kcal/mol)_298.15K_1.00E+00atm> (1)
-27.4764586594464

>  <r_j_Internal_Energy_(kcal/mol)_298.15K_1.00E+00atm> (1)
10.5928766975233

>  <r_j_Heat_Capacity_(cal/mol/K)_298.15K_1.00E+00atm> (1)
63.5779333999568

>  <r_j_ln(Q)_298.15K_1.00E+00atm> (1)
46.3748978499736

>  <r_j_Total_Internal_Energy_(au)_298.15K_1.00E+00atm> (1)
-586.138375287975

>  <r_j_Total_Enthalpy_(au)_298.15K_1.00E+00atm> (1)
-586.137431102083

>  <r_j_Total_Free_Energy_(au)_298.15K_1.00E+00atm> (1)
-586.199042635923

>  <r_lp_tautomer_probability> (1)
1

>  <r_epik_Ionization_Penalty> (1)
  0.0000

>  <r_epik_Ionization_Penalty_Charging> (1)
  0.0000

>  <r_epik_Ionization_Penalty_Neutral> (1)
  0.0000

>  <r_epik_State_Penalty> (1)
  0.0000

>  <r_epik_Charging_Adjusted_Penalty> (1)
0

>  <i_epik_Tot_Q> (1)
0

>  <i_epik_Tot_abs_Q> (1)
0

>  <s_lp_Force_Field> (1)
S-OPLS

>  <r_lp_Energy> (1)
5.93415

>  <b_lp_Chiralities_Consistent> (1)
1

$$$$
