11621_Trans-4-octene
                    3D
 Schrodinger Suite 2021-3.
 24 23  0  0  1  0            999 V2000
   -2.1874    1.3880    0.2780 C   0  0  0  0  0  0
   -0.6569    1.3790    0.3175 C   0  0  0  0  0  0
   -0.0502    0.1412   -0.3702 C   0  0  0  0  0  0
    1.4532    0.1553   -0.3754 C   0  0  0  0  0  0
    2.2393   -0.7356    0.2332 C   0  0  0  0  0  0
    3.7426   -0.7215    0.2281 C   0  0  0  0  0  0
    4.3492   -1.9595   -0.4595 C   0  0  0  0  0  0
    5.8797   -1.9698   -0.4177 C   0  0  0  0  0  0
   -2.5971    2.2732    0.7753 H   0  0  0  0  0  0
   -2.5999    0.5038    0.7776 H   0  0  0  0  0  0
   -2.5555    1.3844   -0.7546 H   0  0  0  0  0  0
   -0.2685    2.2860   -0.1649 H   0  0  0  0  0  0
   -0.3075    1.4132    1.3570 H   0  0  0  0  0  0
   -0.4152   -0.7678    0.1257 H   0  0  0  0  0  0
   -0.4225    0.1009   -1.4052 H   0  0  0  0  0  0
    1.9184    0.9872   -0.9089 H   0  0  0  0  0  0
    1.7741   -1.5675    0.7668 H   0  0  0  0  0  0
    4.1077    0.1874   -0.2678 H   0  0  0  0  0  0
    4.1148   -0.6814    1.2631 H   0  0  0  0  0  0
    3.9595   -2.8664    0.0220 H   0  0  0  0  0  0
    4.0012   -1.9929   -1.4995 H   0  0  0  0  0  0
    6.2894   -2.8552   -0.9146 H   0  0  0  0  0  0
    6.2462   -1.9667    0.6154 H   0  0  0  0  0  0
    6.2936   -1.0858   -0.9165 H   0  0  0  0  0  0
  1  2  1  0  0  0
  1  9  1  0  0  0
  1 10  1  0  0  0
  1 11  1  0  0  0
  2  3  1  0  0  0
  2 12  1  0  0  0
  2 13  1  0  0  0
  3  4  1  0  0  0
  3 14  1  0  0  0
  3 15  1  0  0  0
  4  5  2  0  0  0
  4 16  1  0  0  0
  5  6  1  0  0  0
  5 17  1  0  0  0
  6  7  1  0  0  0
  6 18  1  0  0  0
  6 19  1  0  0  0
  7  8  1  0  0  0
  7 20  1  0  0  0
  7 21  1  0  0  0
  8 22  1  0  0  0
  8 23  1  0  0  0
  8 24  1  0  0  0
M  END
>  <i_m_Spin_multiplicity> (1)
1

>  <s_j_Task> (1)
Single Point

>  <s_j_QM_Method> (1)
DFT(b3lyp-d3)

>  <s_j_QM_Basis> (1)
cc-pvtz(-f)

>  <i_j_Number_of_canonical_orbitals> (1)
325

>  <i_j_Geometry_convergence_category> (1)
0

>  <r_j_Gas_Phase_Energy> (1)
-314.607144817976

>  <r_j_Final_Energy> (1)
-314.607144817976

>  <r_j_HOMO> (1)
-0.24543805784811

>  <r_j_LUMO> (1)
0.014443259515302

>  <r_j_Polarizability> (1)
102.05034561661

>  <r_j_QM_Dipole_(debye)> (1)
0.000722303012241731

>  <r_j_QM_Dipole_X_(debye)> (1)
0.000376774126235613

>  <r_j_QM_Dipole_Y_(debye)> (1)
-0.000377278015600424

>  <r_j_QM_Dipole_Z_(debye)> (1)
0.000487261940066608

>  <r_j_Lowest_Frequency_(cm-1)> (1)
69.4611076156008

>  <r_j_Highest_Frequency_(cm-1)> (1)
3068.13352709657

>  <r_j_2nd_Lowest_Frequency_(cm-1)> (1)
88.4198975446459

>  <i_j_Num_Negative_Frequencies> (1)
0

>  <r_j_Zero_Point_Energy_(kcal/mol)> (1)
139.125832542829

>  <r_j_Entropy_(cal/mol/K)_298.15K_1.00E+00atm> (1)
96.0390914639145

>  <r_j_Enthalpy_(kcal/mol)_298.15K_1.00E+00atm> (1)
6.86180559885933

>  <r_j_Free_Energy_(kcal/mol)_298.15K_1.00E+00atm> (1)
-21.7722495211068

>  <r_j_Internal_Energy_(kcal/mol)_298.15K_1.00E+00atm> (1)
6.26932001003206

>  <r_j_Heat_Capacity_(cal/mol/K)_298.15K_1.00E+00atm> (1)
36.7541686698488

>  <r_j_ln(Q)_298.15K_1.00E+00atm> (1)
36.7473064858865

>  <r_j_Total_Internal_Energy_(au)_298.15K_1.00E+00atm> (1)
-314.375442892342

>  <r_j_Total_Enthalpy_(au)_298.15K_1.00E+00atm> (1)
-314.37449870645

>  <r_j_Total_Free_Energy_(au)_298.15K_1.00E+00atm> (1)
-314.42012997815

>  <r_lp_tautomer_probability> (1)
1

>  <r_epik_Ionization_Penalty> (1)
  0.0000

>  <r_epik_Ionization_Penalty_Charging> (1)
  0.0000

>  <r_epik_Ionization_Penalty_Neutral> (1)
  0.0000

>  <r_epik_State_Penalty> (1)
  0.0000

>  <r_epik_Charging_Adjusted_Penalty> (1)
0

>  <i_epik_Tot_Q> (1)
0

>  <i_epik_Tot_abs_Q> (1)
0

>  <s_lp_Force_Field> (1)
S-OPLS

>  <r_lp_Energy> (1)
-2.893738

>  <b_lp_Chiralities_Consistent> (1)
1

$$$$
