11694869_Dehydroabietal
                    3D
 Schrodinger Suite 2021-3.
 49 51  0  0  1  0            999 V2000
   -0.5782   -0.9116   -1.1580 C   0  0  0  0  0  0
   -0.0344   -0.0158   -0.0301 C   0  0  0  0  0  0
   -0.6277    1.4022   -0.1225 C   0  0  0  0  0  0
    1.4865    0.0168   -0.0220 C   0  0  0  0  0  0
    2.2154   -0.4478    1.0697 C   0  0  0  0  0  0
    3.6170   -0.4229    1.1097 C   0  0  0  0  0  0
    4.3382    0.0994    0.0251 C   0  0  0  0  0  0
    3.6000    0.5458   -1.0858 C   0  0  0  0  0  0
    2.2125    0.5113   -1.1144 C   0  0  0  0  0  0
    5.8796    0.1717   -0.0170 C   0  0  0  0  0  0
    6.3739   -0.8277   -1.1041 C   0  0  0  0  0  0
    7.8982   -0.9688   -1.1709 C   0  0  0  0  0  0
    8.4734   -1.3791    0.1877 C   0  0  0  0  0  0
    8.0626   -0.4120    1.3120 C   0  0  0  0  0  0
    6.5122   -0.1952    1.3752 C   0  0  0  0  0  0
    5.7638   -1.3757    2.0175 C   0  0  0  0  0  0
    4.3243   -0.9727    2.3263 C   0  0  0  0  0  0
    8.6203   -0.9177    2.6710 C   0  0  0  0  0  0
    8.7801    0.9287    1.1630 C   0  0  0  0  0  0
    9.7419    1.1341    0.4546 O   0  0  0  0  0  0
    6.2827    1.6170   -0.3994 C   0  0  0  0  0  0
   -0.1784   -1.9274   -1.0832 H   0  0  0  0  0  0
   -0.3028   -0.5162   -2.1419 H   0  0  0  0  0  0
   -1.6717   -0.9678   -1.1168 H   0  0  0  0  0  0
   -0.3577   -0.4503    0.9252 H   0  0  0  0  0  0
   -0.2652    2.0362    0.6924 H   0  0  0  0  0  0
   -1.7218    1.3701   -0.0737 H   0  0  0  0  0  0
   -0.3503    1.8825   -1.0674 H   0  0  0  0  0  0
    1.6812   -0.8563    1.9263 H   0  0  0  0  0  0
    4.1213    0.9298   -1.9570 H   0  0  0  0  0  0
    1.6901    0.8718   -1.9966 H   0  0  0  0  0  0
    5.9301   -1.8108   -0.9025 H   0  0  0  0  0  0
    5.9803   -0.5153   -2.0774 H   0  0  0  0  0  0
    8.1634   -1.7168   -1.9271 H   0  0  0  0  0  0
    8.3625   -0.0302   -1.4911 H   0  0  0  0  0  0
    8.1185   -2.3850    0.4476 H   0  0  0  0  0  0
    9.5659   -1.4228    0.1398 H   0  0  0  0  0  0
    6.3446    0.6674    2.0405 H   0  0  0  0  0  0
    5.7719   -2.2429    1.3471 H   0  0  0  0  0  0
    6.2470   -1.6892    2.9453 H   0  0  0  0  0  0
    4.3292   -0.2157    3.1246 H   0  0  0  0  0  0
    3.7641   -1.8269    2.7244 H   0  0  0  0  0  0
    8.3119   -1.9489    2.8585 H   0  0  0  0  0  0
    8.2755   -0.3001    3.5080 H   0  0  0  0  0  0
    9.7145   -0.8989    2.6592 H   0  0  0  0  0  0
    8.3917    1.7272    1.8393 H   0  0  0  0  0  0
    7.3630    1.7432   -0.4831 H   0  0  0  0  0  0
    5.9127    2.3281    0.3459 H   0  0  0  0  0  0
    5.8663    1.9056   -1.3671 H   0  0  0  0  0  0
  1  2  1  0  0  0
  1 22  1  0  0  0
  1 23  1  0  0  0
  1 24  1  0  0  0
  2  3  1  0  0  0
  2  4  1  0  0  0
  2 25  1  0  0  0
  3 26  1  0  0  0
  3 27  1  0  0  0
  3 28  1  0  0  0
  4  9  1  0  0  0
  4  5  2  0  0  0
  5  6  1  0  0  0
  5 29  1  0  0  0
  6 17  1  0  0  0
  6  7  2  0  0  0
  7  8  1  0  0  0
  7 10  1  0  0  0
  8  9  2  0  0  0
  8 30  1  0  0  0
  9 31  1  0  0  0
 10 15  1  0  0  0
 10 11  1  0  0  0
 10 21  1  0  0  0
 11 12  1  0  0  0
 11 32  1  0  0  0
 11 33  1  0  0  0
 12 13  1  0  0  0
 12 34  1  0  0  0
 12 35  1  0  0  0
 13 14  1  0  0  0
 13 36  1  0  0  0
 13 37  1  0  0  0
 14 15  1  0  0  0
 14 18  1  0  0  0
 14 19  1  0  0  0
 15 16  1  0  0  0
 15 38  1  0  0  0
 16 17  1  0  0  0
 16 39  1  0  0  0
 16 40  1  0  0  0
 17 41  1  0  0  0
 17 42  1  0  0  0
 18 43  1  0  0  0
 18 44  1  0  0  0
 18 45  1  0  0  0
 19 20  2  0  0  0
 19 46  1  0  0  0
 21 47  1  0  0  0
 21 48  1  0  0  0
 21 49  1  0  0  0
M  END
>  <i_m_Spin_multiplicity> (1)
1

>  <s_j_Task> (1)
Single Point

>  <s_j_QM_Method> (1)
DFT(b3lyp-d3)

>  <s_j_QM_Basis> (1)
cc-pvtz(-f)

>  <i_j_Number_of_canonical_orbitals> (1)
720

>  <i_j_Geometry_convergence_category> (1)
3

>  <r_j_Gas_Phase_Energy> (1)
-854.557470177056

>  <r_j_Final_Energy> (1)
-854.557470177056

>  <r_j_HOMO> (1)
-0.235190113093299

>  <r_j_LUMO> (1)
-0.035377130554118

>  <r_j_Polarizability> (1)
228.960271127917

>  <r_j_QM_Dipole_(debye)> (1)
2.72176822647515

>  <r_j_QM_Dipole_X_(debye)> (1)
-1.98410277044949

>  <r_j_QM_Dipole_Y_(debye)> (1)
-1.23436190995434

>  <r_j_QM_Dipole_Z_(debye)> (1)
1.3956035075186

>  <r_j_Lowest_Frequency_(cm-1)> (1)
51.30820543705

>  <r_j_Highest_Frequency_(cm-1)> (1)
3138.64421452738

>  <r_j_2nd_Lowest_Frequency_(cm-1)> (1)
76.0041510593311

>  <i_j_Num_Negative_Frequencies> (1)
0

>  <r_j_Zero_Point_Energy_(kcal/mol)> (1)
273.517180493806

>  <r_j_Entropy_(cal/mol/K)_298.15K_1.00E+00atm> (1)
134.601053358168

>  <r_j_Enthalpy_(kcal/mol)_298.15K_1.00E+00atm> (1)
12.5552733402417

>  <r_j_Free_Energy_(kcal/mol)_298.15K_1.00E+00atm> (1)
-27.576030718496

>  <r_j_Internal_Energy_(kcal/mol)_298.15K_1.00E+00atm> (1)
11.9627877514144

>  <r_j_Heat_Capacity_(cal/mol/K)_298.15K_1.00E+00atm> (1)
80.7415986168921

>  <r_j_ln(Q)_298.15K_1.00E+00atm> (1)
46.5429560456957

>  <r_j_Total_Internal_Energy_(au)_298.15K_1.00E+00atm> (1)
-854.102528886297

>  <r_j_Total_Enthalpy_(au)_298.15K_1.00E+00atm> (1)
-854.101584700405

>  <r_j_Total_Free_Energy_(au)_298.15K_1.00E+00atm> (1)
-854.165538004662

>  <r_lp_tautomer_probability> (1)
1

>  <r_epik_Ionization_Penalty> (1)
  0.0000

>  <r_epik_Ionization_Penalty_Charging> (1)
  0.0000

>  <r_epik_Ionization_Penalty_Neutral> (1)
  0.0000

>  <r_epik_State_Penalty> (1)
  0.0000

>  <r_epik_Charging_Adjusted_Penalty> (1)
0

>  <i_epik_Tot_Q> (1)
0

>  <i_epik_Tot_abs_Q> (1)
0

>  <s_lp_Force_Field> (1)
S-OPLS

>  <r_lp_Energy> (1)
46.370288

>  <b_lp_Chiralities_Consistent> (1)
1

$$$$
