11767_9-nitroanthracene
                    3D
 Schrodinger Suite 2021-3.
 26 28  0  0  1  0            999 V2000
   -2.1901    3.6454    0.0000 C   0  0  0  0  0  0
   -0.7749    3.7021    0.0000 C   0  0  0  0  0  0
    0.0032    2.5697    0.0000 C   0  0  0  0  0  0
   -0.5727    1.2546    0.0000 C   0  0  0  0  0  0
   -2.0211    1.2180    0.0000 C   0  0  0  0  0  0
   -2.7923    2.4205    0.0000 C   0  0  0  0  0  0
   -2.6888   -0.0030    0.0000 C   0  0  0  0  0  0
   -2.0187   -1.2227    0.0000 C   0  0  0  0  0  0
   -2.7884   -2.4262    0.0000 C   0  0  0  0  0  0
   -2.1848   -3.6503    0.0000 C   0  0  0  0  0  0
   -0.7695   -3.7050   -0.0001 C   0  0  0  0  0  0
    0.0071   -2.5718    0.0000 C   0  0  0  0  0  0
   -0.5703   -1.2574    0.0000 C   0  0  0  0  0  0
    0.1253   -0.0007    0.0000 C   0  0  0  0  0  0
    1.6037    0.0008    0.0000 N   0  3  1  0  0  0
    2.2163   -1.0718    0.0004 O   0  0  0  0  0  0
    2.2145    1.0745   -0.0003 O   0  5  0  0  0  0
   -2.7783    4.5576   -0.0001 H   0  0  0  0  0  0
   -0.2808    4.6694    0.0000 H   0  0  0  0  0  0
    1.0714    2.6788    0.0000 H   0  0  0  0  0  0
   -3.8750    2.3291    0.0000 H   0  0  0  0  0  0
   -3.7763   -0.0042    0.0001 H   0  0  0  0  0  0
   -3.8713   -2.3363    0.0000 H   0  0  0  0  0  0
   -2.7718   -4.5632   -0.0001 H   0  0  0  0  0  0
   -0.2741   -4.6717   -0.0001 H   0  0  0  0  0  0
    1.0754   -2.6795   -0.0001 H   0  0  0  0  0  0
  1  6  1  0  0  0
  1  2  2  0  0  0
  1 18  1  0  0  0
  2  3  1  0  0  0
  2 19  1  0  0  0
  3  4  2  0  0  0
  3 20  1  0  0  0
  4 14  1  0  0  0
  4  5  1  0  0  0
  5  6  2  0  0  0
  5  7  1  0  0  0
  6 21  1  0  0  0
  7  8  2  0  0  0
  7 22  1  0  0  0
  8 13  1  0  0  0
  8  9  1  0  0  0
  9 10  2  0  0  0
  9 23  1  0  0  0
 10 11  1  0  0  0
 10 24  1  0  0  0
 11 12  2  0  0  0
 11 25  1  0  0  0
 12 13  1  0  0  0
 12 26  1  0  0  0
 13 14  2  0  0  0
 14 15  1  0  0  0
 15 16  2  0  0  0
 15 17  1  0  0  0
M  END
>  <i_m_Spin_multiplicity> (1)
1

>  <s_j_Task> (1)
Single Point

>  <s_j_QM_Method> (1)
DFT(b3lyp-d3)

>  <s_j_QM_Basis> (1)
cc-pvtz(-f)

>  <i_j_Number_of_canonical_orbitals> (1)
458

>  <i_j_Geometry_convergence_category> (1)
0

>  <r_j_Gas_Phase_Energy> (1)
-744.261382962144

>  <r_j_Final_Energy> (1)
-744.261382962144

>  <r_j_HOMO> (1)
-0.225815678853821

>  <r_j_LUMO> (1)
-0.114063670682605

>  <r_j_Polarizability> (1)
192.068676786456

>  <r_j_QM_Dipole_(debye)> (1)
5.25899927251319

>  <r_j_QM_Dipole_X_(debye)> (1)
-5.25899908767231

>  <r_j_QM_Dipole_Y_(debye)> (1)
0.00137550926067588

>  <r_j_QM_Dipole_Z_(debye)> (1)
-0.000228320853790398

>  <r_j_Lowest_Frequency_(cm-1)> (1)
-90.4115372987871

>  <r_j_Highest_Frequency_(cm-1)> (1)
3268.68478570093

>  <r_j_2nd_Lowest_Frequency_(cm-1)> (1)
54.6829590694254

>  <i_j_Num_Negative_Frequencies> (1)
1

>  <r_j_Zero_Point_Energy_(kcal/mol)> (1)
122.651537978807

>  <r_j_Entropy_(cal/mol/K)_298.15K_1.00E+00atm> (1)
102.581549285295

>  <r_j_Enthalpy_(kcal/mol)_298.15K_1.00E+00atm> (1)
7.46846106571627

>  <r_j_Free_Energy_(kcal/mol)_298.15K_1.00E+00atm> (1)
-23.1162278536945

>  <r_j_Internal_Energy_(kcal/mol)_298.15K_1.00E+00atm> (1)
6.87597547688899

>  <r_j_Heat_Capacity_(cal/mol/K)_298.15K_1.00E+00atm> (1)
46.840034395618

>  <r_j_ln(Q)_298.15K_1.00E+00atm> (1)
39.0156795196474

>  <r_j_Total_Internal_Energy_(au)_298.15K_1.00E+00atm> (1)
-744.054967729151

>  <r_j_Total_Enthalpy_(au)_298.15K_1.00E+00atm> (1)
-744.054023543259

>  <r_j_Total_Free_Energy_(au)_298.15K_1.00E+00atm> (1)
-744.102763347806

>  <r_lp_tautomer_probability> (1)
1

>  <r_epik_Ionization_Penalty> (1)
  0.0000

>  <r_epik_Ionization_Penalty_Charging> (1)
  0.0000

>  <r_epik_Ionization_Penalty_Neutral> (1)
  0.0000

>  <r_epik_State_Penalty> (1)
  0.0000

>  <r_epik_Charging_Adjusted_Penalty> (1)
0

>  <i_epik_Tot_Q> (1)
0

>  <i_epik_Tot_abs_Q> (1)
2

>  <s_lp_Force_Field> (1)
S-OPLS

>  <r_lp_Energy> (1)
47.4889

>  <b_lp_Chiralities_Consistent> (1)
1

$$$$
