11769_5-Nitroacenaphthene
                    3D
 Schrodinger Suite 2021-3.
 24 26  0  0  1  0            999 V2000
   -4.3651   -1.8509   -0.0002 C   0  0  0  0  0  0
   -4.2755   -0.2896    0.0002 C   0  0  0  0  0  0
   -2.7923    0.0137   -0.0001 C   0  0  0  0  0  0
   -2.1104    1.2112   -0.0001 C   0  0  0  0  0  0
   -0.7016    1.1797   -0.0001 C   0  0  0  0  0  0
    0.0137   -0.0093   -0.0001 C   0  0  0  0  0  0
   -0.6463   -1.2840    0.0000 C   0  0  0  0  0  0
   -0.1117   -2.6023    0.0000 C   0  0  0  0  0  0
   -0.9615   -3.6957    0.0001 C   0  0  0  0  0  0
   -2.3738   -3.5795    0.0001 C   0  0  0  0  0  0
   -2.9228   -2.3188    0.0000 C   0  0  0  0  0  0
   -2.0645   -1.1956    0.0000 C   0  0  0  0  0  0
    1.4767    0.1178    0.0000 N   0  3  1  0  0  0
    2.1574   -0.9117    0.0000 O   0  0  0  0  0  0
    1.9640    1.2514    0.0001 O   0  5  0  0  0  0
   -4.9034   -2.2235   -0.8783 H   0  0  0  0  0  0
   -4.9039   -2.2239    0.8775 H   0  0  0  0  0  0
   -4.7650    0.1472   -0.8770 H   0  0  0  0  0  0
   -4.7645    0.1467    0.8779 H   0  0  0  0  0  0
   -2.6259    2.1662   -0.0001 H   0  0  0  0  0  0
   -0.1379    2.1040   -0.0002 H   0  0  0  0  0  0
    0.9572   -2.7477    0.0000 H   0  0  0  0  0  0
   -0.5216   -4.6891    0.0002 H   0  0  0  0  0  0
   -2.9939   -4.4711    0.0001 H   0  0  0  0  0  0
  1 11  1  0  0  0
  1  2  1  0  0  0
  1 16  1  0  0  0
  1 17  1  0  0  0
  2  3  1  0  0  0
  2 18  1  0  0  0
  2 19  1  0  0  0
  3 12  1  0  0  0
  3  4  2  0  0  0
  4  5  1  0  0  0
  4 20  1  0  0  0
  5  6  2  0  0  0
  5 21  1  0  0  0
  6  7  1  0  0  0
  6 13  1  0  0  0
  7 12  1  0  0  0
  7  8  2  0  0  0
  8  9  1  0  0  0
  8 22  1  0  0  0
  9 10  2  0  0  0
  9 23  1  0  0  0
 10 11  1  0  0  0
 10 24  1  0  0  0
 11 12  2  0  0  0
 13 14  2  0  0  0
 13 15  1  0  0  0
M  END
>  <i_m_Spin_multiplicity> (1)
1

>  <s_j_Task> (1)
Single Point

>  <s_j_QM_Method> (1)
DFT(b3lyp-d3)

>  <s_j_QM_Basis> (1)
cc-pvtz(-f)

>  <i_j_Number_of_canonical_orbitals> (1)
415

>  <i_j_Geometry_convergence_category> (1)
0

>  <r_j_Gas_Phase_Energy> (1)
-668.04045497184

>  <r_j_Final_Energy> (1)
-668.04045497184

>  <r_j_HOMO> (1)
-0.241639058358164

>  <r_j_LUMO> (1)
-0.100715976108546

>  <r_j_Polarizability> (1)
153.137232047361

>  <r_j_QM_Dipole_(debye)> (1)
6.17633363246236

>  <r_j_QM_Dipole_X_(debye)> (1)
-6.09681835240224

>  <r_j_QM_Dipole_Y_(debye)> (1)
-0.98787808339802

>  <r_j_QM_Dipole_Z_(debye)> (1)
-9.81778252034892e-05

>  <r_j_Lowest_Frequency_(cm-1)> (1)
70.1560983424244

>  <r_j_Highest_Frequency_(cm-1)> (1)
3223.13673887786

>  <r_j_2nd_Lowest_Frequency_(cm-1)> (1)
96.3276755048594

>  <i_j_Num_Negative_Frequencies> (1)
0

>  <r_j_Zero_Point_Energy_(kcal/mol)> (1)
115.557803659906

>  <r_j_Entropy_(cal/mol/K)_298.15K_1.00E+00atm> (1)
100.576356755636

>  <r_j_Enthalpy_(kcal/mol)_298.15K_1.00E+00atm> (1)
7.19585292444292

>  <r_j_Free_Energy_(kcal/mol)_298.15K_1.00E+00atm> (1)
-22.7909878422501

>  <r_j_Internal_Energy_(kcal/mol)_298.15K_1.00E+00atm> (1)
6.60336733561564

>  <r_j_Heat_Capacity_(cal/mol/K)_298.15K_1.00E+00atm> (1)
43.3617058799718

>  <r_j_ln(Q)_298.15K_1.00E+00atm> (1)
38.4667378785719

>  <r_j_Total_Internal_Energy_(au)_298.15K_1.00E+00atm> (1)
-667.845778752857

>  <r_j_Total_Enthalpy_(au)_298.15K_1.00E+00atm> (1)
-667.844834566965

>  <r_j_Total_Free_Energy_(au)_298.15K_1.00E+00atm> (1)
-667.892621639831

>  <r_lp_tautomer_probability> (1)
1

>  <r_epik_Ionization_Penalty> (1)
  0.0000

>  <r_epik_Ionization_Penalty_Charging> (1)
  0.0000

>  <r_epik_Ionization_Penalty_Neutral> (1)
  0.0000

>  <r_epik_State_Penalty> (1)
  0.0000

>  <r_epik_Charging_Adjusted_Penalty> (1)
0

>  <i_epik_Tot_Q> (1)
0

>  <i_epik_Tot_abs_Q> (1)
2

>  <s_lp_Force_Field> (1)
S-OPLS

>  <r_lp_Energy> (1)
27.472

>  <b_lp_Chiralities_Consistent> (1)
1

$$$$
