11766_9-phenylanthracene
                    3D
 Schrodinger Suite 2021-3.
 34 37  0  0  1  0            999 V2000
   -2.8291    0.0002   -0.0002 C   0  0  0  0  0  0
   -2.1287   -1.2069   -0.0004 C   0  0  0  0  0  0
   -0.7339   -1.2066   -0.0004 C   0  0  0  0  0  0
   -0.0219   -0.0001   -0.0001 C   0  0  0  0  0  0
   -0.7336    1.2065    0.0000 C   0  0  0  0  0  0
   -2.1285    1.2071    0.0000 C   0  0  0  0  0  0
    1.4722   -0.0002    0.0007 C   0  0  0  0  0  0
    2.1729   -0.0002   -1.2242 C   0  0  0  0  0  0
    1.5030   -0.0002   -2.4896 C   0  0  0  0  0  0
    2.2085   -0.0001   -3.6631 C   0  0  0  0  0  0
    3.6326    0.0000   -3.6544 C   0  0  0  0  0  0
    4.3128    0.0001   -2.4671 C   0  0  0  0  0  0
    3.6170    0.0000   -1.2187 C   0  0  0  0  0  0
    4.2976    0.0001    0.0028 C   0  0  0  0  0  0
    3.6151    0.0000    1.2234 C   0  0  0  0  0  0
    4.3090    0.0002    2.4729 C   0  0  0  0  0  0
    3.6269    0.0002    3.6591 C   0  0  0  0  0  0
    2.2029    0.0001    3.6656 C   0  0  0  0  0  0
    1.4993   -0.0001    2.4909 C   0  0  0  0  0  0
    2.1711   -0.0001    1.2266 C   0  0  0  0  0  0
   -3.9153    0.0003   -0.0002 H   0  0  0  0  0  0
   -2.6683   -2.1498   -0.0006 H   0  0  0  0  0  0
   -0.1853   -2.1440   -0.0004 H   0  0  0  0  0  0
   -0.1849    2.1438    0.0003 H   0  0  0  0  0  0
   -2.6678    2.1501    0.0002 H   0  0  0  0  0  0
    0.4186   -0.0003   -2.5043 H   0  0  0  0  0  0
    1.6800   -0.0001   -4.6121 H   0  0  0  0  0  0
    4.1751    0.0001   -4.5953 H   0  0  0  0  0  0
    5.3997    0.0002   -2.4524 H   0  0  0  0  0  0
    5.3854    0.0002    0.0037 H   0  0  0  0  0  0
    5.3960    0.0003    2.4598 H   0  0  0  0  0  0
    4.1679    0.0004    4.6009 H   0  0  0  0  0  0
    1.6729    0.0001    4.6137 H   0  0  0  0  0  0
    0.4149   -0.0002    2.5041 H   0  0  0  0  0  0
  1  6  1  0  0  0
  1  2  2  0  0  0
  1 21  1  0  0  0
  2  3  1  0  0  0
  2 22  1  0  0  0
  3  4  2  0  0  0
  3 23  1  0  0  0
  4  5  1  0  0  0
  4  7  1  0  0  0
  5  6  2  0  0  0
  5 24  1  0  0  0
  6 25  1  0  0  0
  7 20  1  0  0  0
  7  8  2  0  0  0
  8 13  1  0  0  0
  8  9  1  0  0  0
  9 10  2  0  0  0
  9 26  1  0  0  0
 10 11  1  0  0  0
 10 27  1  0  0  0
 11 12  2  0  0  0
 11 28  1  0  0  0
 12 13  1  0  0  0
 12 29  1  0  0  0
 13 14  2  0  0  0
 14 15  1  0  0  0
 14 30  1  0  0  0
 15 20  1  0  0  0
 15 16  2  0  0  0
 16 17  1  0  0  0
 16 31  1  0  0  0
 17 18  2  0  0  0
 17 32  1  0  0  0
 18 19  1  0  0  0
 18 33  1  0  0  0
 19 20  2  0  0  0
 19 34  1  0  0  0
M  END
>  <i_m_Spin_multiplicity> (1)
1

>  <s_j_Task> (1)
Single Point

>  <s_j_QM_Method> (1)
DFT(b3lyp-d3)

>  <s_j_QM_Basis> (1)
cc-pvtz(-f)

>  <i_j_Number_of_canonical_orbitals> (1)
570

>  <i_j_Geometry_convergence_category> (1)
0

>  <r_j_Gas_Phase_Energy> (1)
-770.83767884228

>  <r_j_Final_Energy> (1)
-770.83767884228

>  <r_j_HOMO> (1)
-0.199570710698494

>  <r_j_LUMO> (1)
-0.0716416759223086

>  <r_j_Polarizability> (1)
239.072107777347

>  <r_j_QM_Dipole_(debye)> (1)
0.301120904930746

>  <r_j_QM_Dipole_X_(debye)> (1)
-0.301120057675319

>  <r_j_QM_Dipole_Y_(debye)> (1)
0.000417638555253131

>  <r_j_QM_Dipole_Z_(debye)> (1)
0.000579508378677712

>  <r_j_Lowest_Frequency_(cm-1)> (1)
71.9279721455604

>  <r_j_Highest_Frequency_(cm-1)> (1)
3157.93911239733

>  <r_j_2nd_Lowest_Frequency_(cm-1)> (1)
76.0375123112648

>  <i_j_Num_Negative_Frequencies> (1)
0

>  <r_j_Zero_Point_Energy_(kcal/mol)> (1)
171.715464543662

>  <r_j_Entropy_(cal/mol/K)_298.15K_1.00E+00atm> (1)
115.36897340297

>  <r_j_Enthalpy_(kcal/mol)_298.15K_1.00E+00atm> (1)
9.25208742393925

>  <r_j_Free_Energy_(kcal/mol)_298.15K_1.00E+00atm> (1)
-25.1451719961561

>  <r_j_Internal_Energy_(kcal/mol)_298.15K_1.00E+00atm> (1)
8.65960183511197

>  <r_j_Heat_Capacity_(cal/mol/K)_298.15K_1.00E+00atm> (1)
59.2113896116375

>  <r_j_ln(Q)_298.15K_1.00E+00atm> (1)
42.4401411111564

>  <r_j_Total_Internal_Energy_(au)_298.15K_1.00E+00atm> (1)
-770.550232875323

>  <r_j_Total_Enthalpy_(au)_298.15K_1.00E+00atm> (1)
-770.54928868943

>  <r_j_Total_Free_Energy_(au)_298.15K_1.00E+00atm> (1)
-770.604104211848

>  <r_lp_tautomer_probability> (1)
1

>  <r_epik_Ionization_Penalty> (1)
  0.0000

>  <r_epik_Ionization_Penalty_Charging> (1)
  0.0000

>  <r_epik_Ionization_Penalty_Neutral> (1)
  0.0000

>  <r_epik_State_Penalty> (1)
  0.0000

>  <r_epik_Charging_Adjusted_Penalty> (1)
0

>  <i_epik_Tot_Q> (1)
0

>  <i_epik_Tot_abs_Q> (1)
0

>  <s_lp_Force_Field> (1)
S-OPLS

>  <r_lp_Energy> (1)
43.865

>  <b_lp_Chiralities_Consistent> (1)
1

$$$$
