11795_1-phenylnaphthalene
                    3D
 Schrodinger Suite 2021-3.
 28 30  0  0  1  0            999 V2000
   -2.8386   -0.0213   -0.1234 C   0  0  0  0  0  0
   -2.1285   -1.0737    0.4570 C   0  0  0  0  0  0
   -0.7380   -1.0235    0.5351 C   0  0  0  0  0  0
   -0.0297    0.0812    0.0350 C   0  0  0  0  0  0
   -0.7559    1.1288   -0.5513 C   0  0  0  0  0  0
   -2.1470    1.0794   -0.6293 C   0  0  0  0  0  0
    1.4577    0.1301    0.0732 C   0  0  0  0  0  0
    2.1480    0.3320   -1.1095 C   0  0  0  0  0  0
    3.5592    0.3518   -1.1514 C   0  0  0  0  0  0
    4.2863    0.1627   -0.0011 C   0  0  0  0  0  0
    3.6302   -0.0288    1.2431 C   0  0  0  0  0  0
    4.3684   -0.2012    2.4445 C   0  0  0  0  0  0
    3.7307   -0.3513    3.6532 C   0  0  0  0  0  0
    2.3182   -0.3209    3.7133 C   0  0  0  0  0  0
    1.5723   -0.1634    2.5673 C   0  0  0  0  0  0
    2.1955   -0.0328    1.2945 C   0  0  0  0  0  0
   -3.9226   -0.0600   -0.1818 H   0  0  0  0  0  0
   -2.6583   -1.9393    0.8446 H   0  0  0  0  0  0
   -0.1885   -1.8507    0.9740 H   0  0  0  0  0  0
   -0.2198    1.9924   -0.9333 H   0  0  0  0  0  0
   -2.6910    1.9046   -1.0802 H   0  0  0  0  0  0
    1.5856    0.4492   -2.0308 H   0  0  0  0  0  0
    4.0636    0.5025   -2.1013 H   0  0  0  0  0  0
    5.3728    0.1617   -0.0253 H   0  0  0  0  0  0
    5.4541   -0.2059    2.3898 H   0  0  0  0  0  0
    4.3080   -0.4815    4.5638 H   0  0  0  0  0  0
    1.8184   -0.4152    4.6731 H   0  0  0  0  0  0
    0.4911   -0.1243    2.6316 H   0  0  0  0  0  0
  1  6  1  0  0  0
  1  2  2  0  0  0
  1 17  1  0  0  0
  2  3  1  0  0  0
  2 18  1  0  0  0
  3  4  2  0  0  0
  3 19  1  0  0  0
  4  5  1  0  0  0
  4  7  1  0  0  0
  5  6  2  0  0  0
  5 20  1  0  0  0
  6 21  1  0  0  0
  7 16  1  0  0  0
  7  8  2  0  0  0
  8  9  1  0  0  0
  8 22  1  0  0  0
  9 10  2  0  0  0
  9 23  1  0  0  0
 10 11  1  0  0  0
 10 24  1  0  0  0
 11 16  1  0  0  0
 11 12  2  0  0  0
 12 13  1  0  0  0
 12 25  1  0  0  0
 13 14  2  0  0  0
 13 26  1  0  0  0
 14 15  1  0  0  0
 14 27  1  0  0  0
 15 16  2  0  0  0
 15 28  1  0  0  0
M  END
>  <i_m_Spin_multiplicity> (1)
1

>  <s_j_Task> (1)
Single Point

>  <s_j_QM_Method> (1)
DFT(b3lyp-d3)

>  <s_j_QM_Basis> (1)
cc-pvtz(-f)

>  <i_j_Number_of_canonical_orbitals> (1)
463

>  <i_j_Geometry_convergence_category> (1)
1

>  <r_j_Gas_Phase_Energy> (1)
-617.152720582956

>  <r_j_Final_Energy> (1)
-617.152720582956

>  <r_j_HOMO> (1)
-0.222211970428137

>  <r_j_LUMO> (1)
-0.057790993598594

>  <r_j_Polarizability> (1)
182.935033336308

>  <r_j_QM_Dipole_(debye)> (1)
0.116963660208745

>  <r_j_QM_Dipole_X_(debye)> (1)
-0.116838253698642

>  <r_j_QM_Dipole_Y_(debye)> (1)
-0.00431797627822964

>  <r_j_QM_Dipole_Z_(debye)> (1)
0.00326731739184641

>  <r_j_Lowest_Frequency_(cm-1)> (1)
84.5861912440898

>  <r_j_Highest_Frequency_(cm-1)> (1)
3161.63032781674

>  <r_j_2nd_Lowest_Frequency_(cm-1)> (1)
99.3372222658131

>  <i_j_Num_Negative_Frequencies> (1)
0

>  <r_j_Zero_Point_Energy_(kcal/mol)> (1)
142.662675544274

>  <r_j_Entropy_(cal/mol/K)_298.15K_1.00E+00atm> (1)
103.421514388839

>  <r_j_Enthalpy_(kcal/mol)_298.15K_1.00E+00atm> (1)
7.58206434556671

>  <r_j_Free_Energy_(kcal/mol)_298.15K_1.00E+00atm> (1)
-23.2530601694655

>  <r_j_Internal_Energy_(kcal/mol)_298.15K_1.00E+00atm> (1)
6.98957875673943

>  <r_j_Heat_Capacity_(cal/mol/K)_298.15K_1.00E+00atm> (1)
47.4430056152479

>  <r_j_ln(Q)_298.15K_1.00E+00atm> (1)
39.2466257542078

>  <r_j_Total_Internal_Energy_(au)_298.15K_1.00E+00atm> (1)
-616.914234533812

>  <r_j_Total_Enthalpy_(au)_298.15K_1.00E+00atm> (1)
-616.91329034792

>  <r_j_Total_Free_Energy_(au)_298.15K_1.00E+00atm> (1)
-616.962429246995

>  <r_lp_tautomer_probability> (1)
1

>  <r_epik_Ionization_Penalty> (1)
  0.0000

>  <r_epik_Ionization_Penalty_Charging> (1)
  0.0000

>  <r_epik_Ionization_Penalty_Neutral> (1)
  0.0000

>  <r_epik_State_Penalty> (1)
  0.0000

>  <r_epik_Charging_Adjusted_Penalty> (1)
0

>  <i_epik_Tot_Q> (1)
0

>  <i_epik_Tot_abs_Q> (1)
0

>  <s_lp_Force_Field> (1)
S-OPLS

>  <r_lp_Energy> (1)
37.984

>  <b_lp_Chiralities_Consistent> (1)
1

$$$$
