11807_2-amino-2-methyl-1-propanol
                    3D
 Schrodinger Suite 2021-3.
 18 17  0  0  1  0            999 V2000
   -0.4848   -0.7434    1.2739 C   0  0  0  0  0  0
    0.0416    0.0616    0.0914 C   0  0  0  0  0  0
   -0.5187    1.4841    0.0389 C   0  0  0  0  0  0
    1.5778    0.0514    0.0088 C   0  0  0  0  0  0
    1.8975    0.5443   -1.2861 O   0  0  0  0  0  0
   -0.4003   -0.6354   -1.2201 N   0  3  1  0  0  0
   -0.1429   -0.2789    2.2024 H   0  0  0  0  0  0
   -0.1201   -1.7760    1.2646 H   0  0  0  0  0  0
   -1.5785   -0.7520    1.2956 H   0  0  0  0  0  0
   -0.2201    2.0141    0.9464 H   0  0  0  0  0  0
   -1.6131    1.4822    0.0053 H   0  0  0  0  0  0
   -0.1253    2.0353   -0.8183 H   0  0  0  0  0  0
    1.9690    0.6875    0.8122 H   0  0  0  0  0  0
    1.9618   -0.9688    0.1614 H   0  0  0  0  0  0
    2.8545    0.5941   -1.4088 H   0  0  0  0  0  0
    0.1947   -0.2493   -1.9716 H   0  0  0  0  0  0
   -1.3875   -0.4667   -1.4306 H   0  0  0  0  0  0
   -0.2478   -1.6479   -1.1824 H   0  0  0  0  0  0
  1  2  1  0  0  0
  1  7  1  0  0  0
  1  8  1  0  0  0
  1  9  1  0  0  0
  2  3  1  0  0  0
  2  4  1  0  0  0
  2  6  1  0  0  0
  3 10  1  0  0  0
  3 11  1  0  0  0
  3 12  1  0  0  0
  4  5  1  0  0  0
  4 13  1  0  0  0
  4 14  1  0  0  0
  5 15  1  0  0  0
  6 16  1  0  0  0
  6 17  1  0  0  0
  6 18  1  0  0  0
M  END
>  <i_m_Spin_multiplicity> (1)
1

>  <s_j_Task> (1)
Single Point

>  <s_j_QM_Method> (1)
DFT(b3lyp-d3)

>  <s_j_QM_Basis> (1)
cc-pvtz(-f)

>  <i_j_Number_of_canonical_orbitals> (1)
245

>  <i_j_Geometry_convergence_category> (1)
0

>  <r_j_Gas_Phase_Energy> (1)
-289.519637969983

>  <r_j_Final_Energy> (1)
-289.519637969983

>  <r_j_HOMO> (1)
-0.456139799007368

>  <r_j_LUMO> (1)
-0.166886872932673

>  <r_j_Polarizability> (1)
58.179609652235

>  <r_j_QM_Dipole_(debye)> (1)
3.08525683163204

>  <r_j_QM_Dipole_X_(debye)> (1)
-1.20133680917314

>  <r_j_QM_Dipole_Y_(debye)> (1)
-2.39783671178136

>  <r_j_QM_Dipole_Z_(debye)> (1)
-1.52511596008023

>  <r_j_Lowest_Frequency_(cm-1)> (1)
177.188880599322

>  <r_j_Highest_Frequency_(cm-1)> (1)
3779.84167650662

>  <r_j_2nd_Lowest_Frequency_(cm-1)> (1)
274.600524545939

>  <i_j_Num_Negative_Frequencies> (1)
0

>  <r_j_Zero_Point_Energy_(kcal/mol)> (1)
105.565481865483

>  <r_j_Entropy_(cal/mol/K)_298.15K_1.00E+00atm> (1)
81.0667125199561

>  <r_j_Enthalpy_(kcal/mol)_298.15K_1.00E+00atm> (1)
5.24937227532999

>  <r_j_Free_Energy_(kcal/mol)_298.15K_1.00E+00atm> (1)
-18.9206680624949

>  <r_j_Internal_Energy_(kcal/mol)_298.15K_1.00E+00atm> (1)
4.65688668650272

>  <r_j_Heat_Capacity_(cal/mol/K)_298.15K_1.00E+00atm> (1)
28.6939846790832

>  <r_j_ln(Q)_298.15K_1.00E+00atm> (1)
31.9343937123352

>  <r_j_Total_Internal_Energy_(au)_298.15K_1.00E+00atm> (1)
-289.343987443861

>  <r_j_Total_Enthalpy_(au)_298.15K_1.00E+00atm> (1)
-289.343043257968

>  <r_j_Total_Free_Energy_(au)_298.15K_1.00E+00atm> (1)
-289.381560669248

>  <r_epik_Ionization_Penalty> (1)
  0.0084

>  <r_epik_Ionization_Penalty_Charging> (1)
  0.0084

>  <r_epik_Ionization_Penalty_Neutral> (1)
  0.0000

>  <r_epik_State_Penalty> (1)
  0.0064

>  <r_epik_Charging_Adjusted_Penalty> (1)
0.01481260095991

>  <i_epik_Tot_Q> (1)
1

>  <i_epik_Tot_abs_Q> (1)
1

>  <s_lp_Force_Field> (1)
S-OPLS

>  <r_lp_Energy> (1)
3.876271

>  <b_lp_Chiralities_Consistent> (1)
1

$$$$
