1183_4-formyl-guaiacol
                    3D
 Schrodinger Suite 2021-3.
 19 19  0  0  1  0            999 V2000
   -0.6933    1.1879    0.0000 C   0  0  0  0  0  0
    0.0488   -0.0244    0.0000 O   0  0  0  0  0  0
    1.4046    0.0666    0.0000 C   0  0  0  0  0  0
    2.0952   -1.1753    0.0000 C   0  0  0  0  0  0
    3.4891   -1.1993    0.0000 C   0  0  0  0  0  0
    4.2167   -0.0101    0.0000 C   0  0  0  0  0  0
    3.5454    1.2122    0.0000 C   0  0  0  0  0  0
    2.1372    1.2440    0.0000 C   0  0  0  0  0  0
    4.3015    2.4763    0.0000 C   0  0  0  0  0  0
    3.7991    3.5870    0.0000 O   0  0  0  0  0  0
    1.3311   -2.2973    0.0000 O   0  0  0  0  0  0
   -1.7437    0.8943    0.0000 H   0  0  0  0  0  0
   -0.4833    1.7897   -0.8936 H   0  0  0  0  0  0
   -0.4832    1.7897    0.8936 H   0  0  0  0  0  0
    4.0001   -2.1594    0.0000 H   0  0  0  0  0  0
    5.3030   -0.0351    0.0000 H   0  0  0  0  0  0
    1.6581    2.2156    0.0000 H   0  0  0  0  0  0
    5.4083    2.3524    0.0000 H   0  0  0  0  0  0
    1.9089   -3.0721    0.0000 H   0  0  0  0  0  0
  1  2  1  0  0  0
  1 12  1  0  0  0
  1 13  1  0  0  0
  1 14  1  0  0  0
  2  3  1  0  0  0
  3  8  1  0  0  0
  3  4  2  0  0  0
  4  5  1  0  0  0
  4 11  1  0  0  0
  5  6  2  0  0  0
  5 15  1  0  0  0
  6  7  1  0  0  0
  6 16  1  0  0  0
  7  8  2  0  0  0
  7  9  1  0  0  0
  8 17  1  0  0  0
  9 10  2  0  0  0
  9 18  1  0  0  0
 11 19  1  0  0  0
M  END
>  <i_m_Spin_multiplicity> (1)
1

>  <s_j_Task> (1)
Single Point

>  <s_j_QM_Method> (1)
DFT(b3lyp-d3)

>  <s_j_QM_Basis> (1)
cc-pvtz(-f)

>  <i_j_Number_of_canonical_orbitals> (1)
319

>  <i_j_Geometry_convergence_category> (1)
0

>  <r_j_Gas_Phase_Energy> (1)
-535.510910913904

>  <r_j_Final_Energy> (1)
-535.510910913904

>  <r_j_HOMO> (1)
-0.228726152545192

>  <r_j_LUMO> (1)
-0.0582305253926583

>  <r_j_Polarizability> (1)
106.536230850393

>  <r_j_QM_Dipole_(debye)> (1)
3.46324962293839

>  <r_j_QM_Dipole_X_(debye)> (1)
0.0203049088685239

>  <r_j_QM_Dipole_Y_(debye)> (1)
-3.4631900987224

>  <r_j_QM_Dipole_Z_(debye)> (1)
-3.96219187138613e-05

>  <r_j_Lowest_Frequency_(cm-1)> (1)
104.985576823625

>  <r_j_Highest_Frequency_(cm-1)> (1)
3766.90213916218

>  <r_j_2nd_Lowest_Frequency_(cm-1)> (1)
120.455001004275

>  <i_j_Num_Negative_Frequencies> (1)
0

>  <r_j_Zero_Point_Energy_(kcal/mol)> (1)
91.7383914838829

>  <r_j_Entropy_(cal/mol/K)_298.15K_1.00E+00atm> (1)
95.3303003972871

>  <r_j_Enthalpy_(kcal/mol)_298.15K_1.00E+00atm> (1)
6.63388992866504

>  <r_j_Free_Energy_(kcal/mol)_298.15K_1.00E+00atm> (1)
-21.7888391347861

>  <r_j_Internal_Energy_(kcal/mol)_298.15K_1.00E+00atm> (1)
6.04140433983777

>  <r_j_Heat_Capacity_(cal/mol/K)_298.15K_1.00E+00atm> (1)
36.9948188766182

>  <r_j_ln(Q)_298.15K_1.00E+00atm> (1)
36.7753065149035

>  <r_j_Total_Internal_Energy_(au)_298.15K_1.00E+00atm> (1)
-535.355088889698

>  <r_j_Total_Enthalpy_(au)_298.15K_1.00E+00atm> (1)
-535.354144703806

>  <r_j_Total_Free_Energy_(au)_298.15K_1.00E+00atm> (1)
-535.399439205997

>  <r_epik_Ionization_Penalty> (1)
  0.0992

>  <r_epik_Ionization_Penalty_Charging> (1)
  0.0000

>  <r_epik_Ionization_Penalty_Neutral> (1)
  0.0992

>  <r_epik_State_Penalty> (1)
  0.0892

>  <r_epik_Charging_Adjusted_Penalty> (1)
0.0892404

>  <i_epik_Tot_Q> (1)
0

>  <i_epik_Tot_abs_Q> (1)
0

>  <s_lp_Force_Field> (1)
S-OPLS

>  <r_lp_Energy> (1)
12.2375

>  <b_lp_Chiralities_Consistent> (1)
1

$$$$
