11863_2-methyl-3-ethylpentane
                    3D
 Schrodinger Suite 2021-3.
 26 25  0  0  1  0            999 V2000
   -2.0832   -0.8301    1.3354 C   0  0  0  0  0  0
   -0.5568   -0.6924    1.3005 C   0  0  0  0  0  0
    0.0100   -0.0247    0.0258 C   0  0  0  0  0  0
   -0.5322   -0.6826   -1.2652 C   0  0  0  0  0  0
   -0.1270   -2.1474   -1.4699 C   0  0  0  0  0  0
    1.5636    0.0462    0.0690 C   0  0  0  0  0  0
    2.0703    0.8710    1.2653 C   0  0  0  0  0  0
    2.1624    0.6186   -1.2266 C   0  0  0  0  0  0
   -2.4195   -1.1738    2.3189 H   0  0  0  0  0  0
   -2.4505   -1.5481    0.5956 H   0  0  0  0  0  0
   -2.5708    0.1311    1.1346 H   0  0  0  0  0  0
   -0.2486   -0.1073    2.1728 H   0  0  0  0  0  0
   -0.0983   -1.6824    1.4279 H   0  0  0  0  0  0
   -0.3534    1.0163    0.0169 H   0  0  0  0  0  0
   -1.6256   -0.6113   -1.2625 H   0  0  0  0  0  0
   -0.2105   -0.0945   -2.1311 H   0  0  0  0  0  0
   -0.5566   -2.5443   -2.3954 H   0  0  0  0  0  0
   -0.4744   -2.7816   -0.6476 H   0  0  0  0  0  0
    0.9600   -2.2621   -1.5363 H   0  0  0  0  0  0
    1.9428   -0.9794    0.1894 H   0  0  0  0  0  0
    1.6707    1.8923    1.2285 H   0  0  0  0  0  0
    3.1629    0.9435    1.2499 H   0  0  0  0  0  0
    1.7874    0.4361    2.2271 H   0  0  0  0  0  0
    1.7439    1.6091   -1.4449 H   0  0  0  0  0  0
    1.9753   -0.0213   -2.0929 H   0  0  0  0  0  0
    3.2476    0.7321   -1.1328 H   0  0  0  0  0  0
  1  2  1  0  0  0
  1  9  1  0  0  0
  1 10  1  0  0  0
  1 11  1  0  0  0
  2  3  1  0  0  0
  2 12  1  0  0  0
  2 13  1  0  0  0
  3  4  1  0  0  0
  3  6  1  0  0  0
  3 14  1  0  0  0
  4  5  1  0  0  0
  4 15  1  0  0  0
  4 16  1  0  0  0
  5 17  1  0  0  0
  5 18  1  0  0  0
  5 19  1  0  0  0
  6  7  1  0  0  0
  6  8  1  0  0  0
  6 20  1  0  0  0
  7 21  1  0  0  0
  7 22  1  0  0  0
  7 23  1  0  0  0
  8 24  1  0  0  0
  8 25  1  0  0  0
  8 26  1  0  0  0
M  END
>  <i_m_Spin_multiplicity> (1)
1

>  <s_j_Task> (1)
Single Point

>  <s_j_QM_Method> (1)
DFT(b3lyp-d3)

>  <s_j_QM_Basis> (1)
cc-pvtz(-f)

>  <i_j_Number_of_canonical_orbitals> (1)
343

>  <i_j_Geometry_convergence_category> (1)
3

>  <r_j_Gas_Phase_Energy> (1)
-315.837491778986

>  <r_j_Final_Energy> (1)
-315.837491778986

>  <r_j_HOMO> (1)
-0.302122542130975

>  <r_j_LUMO> (1)
0.0239440559288714

>  <r_j_Polarizability> (1)
97.3935738893587

>  <r_j_QM_Dipole_(debye)> (1)
0.0347962418709388

>  <r_j_QM_Dipole_X_(debye)> (1)
-0.00614756031717281

>  <r_j_QM_Dipole_Y_(debye)> (1)
-0.0204060337123843

>  <r_j_QM_Dipole_Z_(debye)> (1)
0.0275059945942086

>  <r_j_Lowest_Frequency_(cm-1)> (1)
96.6240743998441

>  <r_j_Highest_Frequency_(cm-1)> (1)
3065.45423649196

>  <r_j_2nd_Lowest_Frequency_(cm-1)> (1)
119.47457252919

>  <i_j_Num_Negative_Frequencies> (1)
0

>  <r_j_Zero_Point_Energy_(kcal/mol)> (1)
154.10048740379

>  <r_j_Entropy_(cal/mol/K)_298.15K_1.00E+00atm> (1)
94.5785988873371

>  <r_j_Enthalpy_(kcal/mol)_298.15K_1.00E+00atm> (1)
6.89917604734605

>  <r_j_Free_Energy_(kcal/mol)_298.15K_1.00E+00atm> (1)
-21.2994332109135

>  <r_j_Internal_Energy_(kcal/mol)_298.15K_1.00E+00atm> (1)
6.30669045851877

>  <r_j_Heat_Capacity_(cal/mol/K)_298.15K_1.00E+00atm> (1)
39.0049260798057

>  <r_j_ln(Q)_298.15K_1.00E+00atm> (1)
35.9492848645858

>  <r_j_Total_Internal_Energy_(au)_298.15K_1.00E+00atm> (1)
-315.581866668082

>  <r_j_Total_Enthalpy_(au)_298.15K_1.00E+00atm> (1)
-315.58092248219

>  <r_j_Total_Free_Energy_(au)_298.15K_1.00E+00atm> (1)
-315.625859826734

>  <r_lp_tautomer_probability> (1)
1

>  <r_epik_Ionization_Penalty> (1)
  0.0000

>  <r_epik_Ionization_Penalty_Charging> (1)
  0.0000

>  <r_epik_Ionization_Penalty_Neutral> (1)
  0.0000

>  <r_epik_State_Penalty> (1)
  0.0000

>  <r_epik_Charging_Adjusted_Penalty> (1)
0

>  <i_epik_Tot_Q> (1)
0

>  <i_epik_Tot_abs_Q> (1)
0

>  <s_lp_Force_Field> (1)
S-OPLS

>  <r_lp_Energy> (1)
7.12622

>  <b_lp_Chiralities_Consistent> (1)
1

$$$$
