11897_2,4-Dimethylbenzoic acid
                    3D
 Schrodinger Suite 2021-3.
 20 20  0  0  1  0            999 V2000
   -0.0001   -0.0285    0.0000 C   0  0  0  0  0  0
    1.5122   -0.0203   -0.0001 C   0  0  0  0  0  0
    2.2356    1.1707    0.0000 C   0  0  0  0  0  0
    3.6423    1.2151    0.0000 C   0  0  0  0  0  0
    4.3663    0.0038    0.0000 C   0  0  0  0  0  0
    3.6275   -1.1931    0.0000 C   0  0  0  0  0  0
    2.2390   -1.2196   -0.0001 C   0  0  0  0  0  0
    5.9317   -0.1498    0.0001 C   0  0  0  0  0  0
    6.3351   -1.3379    0.0002 O   0  0  0  0  0  0
    6.6210    0.9036   -0.0001 O   0  5  0  0  0  0
    4.2951    2.5843    0.0000 C   0  0  0  0  0  0
   -0.4082    0.9880    0.0000 H   0  0  0  0  0  0
   -0.4021   -0.5468    0.8808 H   0  0  0  0  0  0
   -0.4023   -0.5469   -0.8807 H   0  0  0  0  0  0
    1.6905    2.1164    0.0000 H   0  0  0  0  0  0
    4.2137   -2.1070    0.0000 H   0  0  0  0  0  0
    1.7091   -2.1726   -0.0001 H   0  0  0  0  0  0
    5.3796    2.4643   -0.0001 H   0  0  0  0  0  0
    3.9788    3.1589    0.8820 H   0  0  0  0  0  0
    3.9786    3.1590   -0.8819 H   0  0  0  0  0  0
  1  2  1  0  0  0
  1 12  1  0  0  0
  1 13  1  0  0  0
  1 14  1  0  0  0
  2  7  1  0  0  0
  2  3  2  0  0  0
  3  4  1  0  0  0
  3 15  1  0  0  0
  4  5  2  0  0  0
  4 11  1  0  0  0
  5  6  1  0  0  0
  5  8  1  0  0  0
  6  7  2  0  0  0
  6 16  1  0  0  0
  7 17  1  0  0  0
  8  9  2  0  0  0
  8 10  1  0  0  0
 11 18  1  0  0  0
 11 19  1  0  0  0
 11 20  1  0  0  0
M  END
>  <i_m_Spin_multiplicity> (1)
1

>  <s_j_Task> (1)
Single Point

>  <s_j_QM_Method> (1)
DFT(b3lyp-d3)

>  <s_j_QM_Basis> (1)
cc-pvtz(-f)

>  <i_j_Number_of_canonical_orbitals> (1)
328

>  <i_j_Geometry_convergence_category> (1)
0

>  <r_j_Gas_Phase_Energy> (1)
-499.076936886505

>  <r_j_Final_Energy> (1)
-499.076936886505

>  <r_j_HOMO> (1)
-0.0476125797473264

>  <r_j_LUMO> (1)
0.117650340136272

>  <r_j_Polarizability> (1)
114.042819143047

>  <r_j_QM_Dipole_(debye)> (1)
9.62765362606884

>  <r_j_QM_Dipole_X_(debye)> (1)
-9.52978685258258

>  <r_j_QM_Dipole_Y_(debye)> (1)
1.36926143880697

>  <r_j_QM_Dipole_Z_(debye)> (1)
9.84214221453511e-06

>  <r_j_Lowest_Frequency_(cm-1)> (1)
63.140088253733

>  <r_j_Highest_Frequency_(cm-1)> (1)
3141.19815299637

>  <r_j_2nd_Lowest_Frequency_(cm-1)> (1)
103.447294195139

>  <i_j_Num_Negative_Frequencies> (1)
0

>  <r_j_Zero_Point_Energy_(kcal/mol)> (1)
97.820627266097

>  <r_j_Entropy_(cal/mol/K)_298.15K_1.00E+00atm> (1)
96.5942663037359

>  <r_j_Enthalpy_(kcal/mol)_298.15K_1.00E+00atm> (1)
6.80239864010131

>  <r_j_Free_Energy_(kcal/mol)_298.15K_1.00E+00atm> (1)
-21.9971818583575

>  <r_j_Internal_Energy_(kcal/mol)_298.15K_1.00E+00atm> (1)
6.20991305127404

>  <r_j_Heat_Capacity_(cal/mol/K)_298.15K_1.00E+00atm> (1)
37.6508510022834

>  <r_j_ln(Q)_298.15K_1.00E+00atm> (1)
37.1269483564946

>  <r_j_Total_Internal_Energy_(au)_298.15K_1.00E+00atm> (1)
-498.911153666824

>  <r_j_Total_Enthalpy_(au)_298.15K_1.00E+00atm> (1)
-498.910209480931

>  <r_j_Total_Free_Energy_(au)_298.15K_1.00E+00atm> (1)
-498.956104534114

>  <r_epik_Ionization_Penalty> (1)
  0.0005

>  <r_epik_Ionization_Penalty_Charging> (1)
  0.0005

>  <r_epik_Ionization_Penalty_Neutral> (1)
  0.0000

>  <r_epik_State_Penalty> (1)
  0.0003

>  <r_epik_Charging_Adjusted_Penalty> (1)
0.000859426

>  <i_epik_Tot_Q> (1)
-1

>  <i_epik_Tot_abs_Q> (1)
1

>  <s_lp_Force_Field> (1)
S-OPLS

>  <r_lp_Energy> (1)
24.7102

>  <b_lp_Chiralities_Consistent> (1)
1

$$$$
