11904_o-Vinyltoluene
                    3D
 Schrodinger Suite 2021-3.
 19 19  0  0  1  0            999 V2000
   -0.0169    0.0143    0.0000 C   0  0  0  0  0  0
    1.4967   -0.0127    0.0000 C   0  0  0  0  0  0
    2.1974    1.1989    0.0000 C   0  0  0  0  0  0
    3.5895    1.2400    0.0000 C   0  0  0  0  0  0
    4.3099    0.0456    0.0000 C   0  0  0  0  0  0
    3.6312   -1.1669    0.0000 C   0  0  0  0  0  0
    2.2262   -1.2281    0.0000 C   0  0  0  0  0  0
    1.5175   -2.5222    0.0000 C   0  0  0  0  0  0
    2.0564   -3.7490    0.0000 C   0  0  0  0  0  0
   -0.3848    1.0437    0.0000 H   0  0  0  0  0  0
   -0.4341   -0.4847    0.8821 H   0  0  0  0  0  0
   -0.4341   -0.4847   -0.8821 H   0  0  0  0  0  0
    1.6355    2.1296    0.0000 H   0  0  0  0  0  0
    4.1063    2.1952    0.0000 H   0  0  0  0  0  0
    5.3960    0.0586    0.0000 H   0  0  0  0  0  0
    4.2054   -2.0879    0.0000 H   0  0  0  0  0  0
    0.4327   -2.4636    0.0000 H   0  0  0  0  0  0
    3.1271   -3.9281    0.0000 H   0  0  0  0  0  0
    1.4244   -4.6309    0.0000 H   0  0  0  0  0  0
  1  2  1  0  0  0
  1 10  1  0  0  0
  1 11  1  0  0  0
  1 12  1  0  0  0
  2  7  1  0  0  0
  2  3  2  0  0  0
  3  4  1  0  0  0
  3 13  1  0  0  0
  4  5  2  0  0  0
  4 14  1  0  0  0
  5  6  1  0  0  0
  5 15  1  0  0  0
  6  7  2  0  0  0
  6 16  1  0  0  0
  7  8  1  0  0  0
  8  9  2  0  0  0
  8 17  1  0  0  0
  9 18  1  0  0  0
  9 19  1  0  0  0
M  END
> <i_m_Spin_multiplicity>
1

> <s_j_Task>
Single Point

> <s_j_QM_Method>
DFT(b3lyp-d3)

> <s_j_QM_Basis>
cc-pvtz(-f)

> <i_j_Number_of_canonical_orbitals>
291

> <i_j_Geometry_convergence_category>
0

> <r_j_Gas_Phase_Energy>
-349.087827865165

> <r_j_Final_Energy>
-349.087827865165

> <r_j_HOMO>
-0.233986472173348

> <r_j_LUMO>
-0.0535674429400459

> <r_j_Polarizability>
105.475868979887

> <r_j_QM_Dipole_(debye)>
0.381832285153178

> <r_j_QM_Dipole_X_(debye)>
-0.337065209607562

> <r_j_QM_Dipole_Y_(debye)>
0.17939603795415

> <r_j_QM_Dipole_Z_(debye)>
-4.8847815853316e-06

> <r_j_Lowest_Frequency_(cm-1)>
84.4786958612253

> <r_j_Highest_Frequency_(cm-1)>
3184.596596365

> <r_j_2nd_Lowest_Frequency_(cm-1)>
176.1877540693

> <i_j_Num_Negative_Frequencies>
0

> <r_j_Zero_Point_Energy_(kcal/mol)>
100.763608457843

> <r_j_Entropy_(cal/mol/K)_298.15K_1.00E+00atm>
86.5678676314691

> <r_j_Enthalpy_(kcal/mol)_298.15K_1.00E+00atm>
5.57234508479041

> <r_j_Free_Energy_(kcal/mol)_298.15K_1.00E+00atm>
-20.2378646495321

> <r_j_Internal_Energy_(kcal/mol)_298.15K_1.00E+00atm>
4.97985949596313

> <r_j_Heat_Capacity_(cal/mol/K)_298.15K_1.00E+00atm>
31.4535467750935

> <r_j_ln(Q)_298.15K_1.00E+00atm>
34.1575643883416

> <r_j_Total_Internal_Energy_(au)_298.15K_1.00E+00atm>
-348.919314921522

> <r_j_Total_Enthalpy_(au)_298.15K_1.00E+00atm>
-348.91837073563

> <r_j_Total_Free_Energy_(au)_298.15K_1.00E+00atm>
-348.959501923234

> <r_lp_tautomer_probability>
1

> <r_epik_Ionization_Penalty>
  0.0000

> <r_epik_Ionization_Penalty_Charging>
  0.0000

> <r_epik_Ionization_Penalty_Neutral>
  0.0000

> <r_epik_State_Penalty>
  0.0000

> <r_epik_Charging_Adjusted_Penalty>
0

> <i_epik_Tot_Q>
0

> <i_epik_Tot_abs_Q>
0

> <s_lp_Force_Field>
S-OPLS

> <r_lp_Energy>
12.0886

> <b_lp_Chiralities_Consistent>
1

$$$$
