12097_5-Methyl-2-furaldehyde
                    3D
 Schrodinger Suite 2021-3.
 14 14  0  0  1  0            999 V2000
    0.0160    0.0035    0.0000 C   0  0  0  0  0  0
    1.5028   -0.0061    0.0000 C   0  0  0  0  0  0
    2.4473    0.9899    0.0000 C   0  0  0  0  0  0
    3.7149    0.3493    0.0000 C   0  0  0  0  0  0
    3.4678   -1.0001    0.0000 C   0  0  0  0  0  0
    2.1087   -1.2215    0.0000 O   0  0  0  0  0  0
    4.3419   -2.1597    0.0000 C   0  0  0  0  0  0
    5.5601   -2.0848    0.0001 O   0  0  0  0  0  0
   -0.3509    1.0318    0.0001 H   0  0  0  0  0  0
   -0.3798   -0.5090    0.8836 H   0  0  0  0  0  0
   -0.3798   -0.5089   -0.8837 H   0  0  0  0  0  0
    2.2448    2.0511    0.0000 H   0  0  0  0  0  0
    4.6962    0.8003    0.0000 H   0  0  0  0  0  0
    3.8077   -3.1337    0.0000 H   0  0  0  0  0  0
  1  2  1  0  0  0
  1  9  1  0  0  0
  1 10  1  0  0  0
  1 11  1  0  0  0
  2  6  1  0  0  0
  2  3  2  0  0  0
  3  4  1  0  0  0
  3 12  1  0  0  0
  4  5  2  0  0  0
  4 13  1  0  0  0
  5  6  1  0  0  0
  5  7  1  0  0  0
  7  8  2  0  0  0
  7 14  1  0  0  0
M  END
>  <i_m_Spin_multiplicity> (1)
1

>  <s_j_Task> (1)
Single Point

>  <s_j_QM_Method> (1)
DFT(b3lyp-d3)

>  <s_j_QM_Basis> (1)
cc-pvtz(-f)

>  <i_j_Number_of_canonical_orbitals> (1)
234

>  <i_j_Geometry_convergence_category> (1)
3

>  <r_j_Gas_Phase_Energy> (1)
-382.809221902678

>  <r_j_Final_Energy> (1)
-382.809221902678

>  <r_j_HOMO> (1)
-0.247194765512112

>  <r_j_LUMO> (1)
-0.074126885403708

>  <r_j_Polarizability> (1)
76.9981657672418

>  <r_j_QM_Dipole_(debye)> (1)
4.41845868467579

>  <r_j_QM_Dipole_X_(debye)> (1)
-3.93656407593685

>  <r_j_QM_Dipole_Y_(debye)> (1)
2.00654937763525

>  <r_j_QM_Dipole_Z_(debye)> (1)
-0.000139075375208047

>  <r_j_Lowest_Frequency_(cm-1)> (1)
143.325953075377

>  <r_j_Highest_Frequency_(cm-1)> (1)
3222.65457857482

>  <r_j_2nd_Lowest_Frequency_(cm-1)> (1)
193.539514702179

>  <i_j_Num_Negative_Frequencies> (1)
0

>  <r_j_Zero_Point_Energy_(kcal/mol)> (1)
66.827655627078

>  <r_j_Entropy_(cal/mol/K)_298.15K_1.00E+00atm> (1)
82.212148564464

>  <r_j_Enthalpy_(kcal/mol)_298.15K_1.00E+00atm> (1)
4.97188700957868

>  <r_j_Free_Energy_(kcal/mol)_298.15K_1.00E+00atm> (1)
-19.5396650849163

>  <r_j_Internal_Energy_(kcal/mol)_298.15K_1.00E+00atm> (1)
4.3794014207514

>  <r_j_Heat_Capacity_(cal/mol/K)_298.15K_1.00E+00atm> (1)
25.6600581470499

>  <r_j_ln(Q)_298.15K_1.00E+00atm> (1)
32.9791398362815

>  <r_j_Total_Internal_Energy_(au)_298.15K_1.00E+00atm> (1)
-382.695746233462

>  <r_j_Total_Enthalpy_(au)_298.15K_1.00E+00atm> (1)
-382.694802047569

>  <r_j_Total_Free_Energy_(au)_298.15K_1.00E+00atm> (1)
-382.733863692479

>  <r_lp_tautomer_probability> (1)
1

>  <r_epik_Ionization_Penalty> (1)
  0.0000

>  <r_epik_Ionization_Penalty_Charging> (1)
  0.0000

>  <r_epik_Ionization_Penalty_Neutral> (1)
  0.0000

>  <r_epik_State_Penalty> (1)
  0.0000

>  <r_epik_Charging_Adjusted_Penalty> (1)
0

>  <i_epik_Tot_Q> (1)
0

>  <i_epik_Tot_abs_Q> (1)
0

>  <s_lp_Force_Field> (1)
S-OPLS

>  <r_lp_Energy> (1)
2.08829

>  <b_lp_Chiralities_Consistent> (1)
1

$$$$
