12100_1-Methyl-3-ethylbenzene
                    3D
 Schrodinger Suite 2021-3.
 21 21  0  0  1  0            999 V2000
   -0.5576    1.4501   -0.0041 C   0  0  0  0  0  0
   -0.0154    0.0098   -0.0106 C   0  0  0  0  0  0
    1.4976   -0.0296   -0.0143 C   0  0  0  0  0  0
    2.2122   -0.0224   -1.2161 C   0  0  0  0  0  0
    3.6076   -0.0063   -1.2081 C   0  0  0  0  0  0
    4.3029    0.0022   -0.0013 C   0  0  0  0  0  0
    3.6119   -0.0048    1.2181 C   0  0  0  0  0  0
    2.2145   -0.0206    1.1896 C   0  0  0  0  0  0
    4.3710    0.0007    2.5248 C   0  0  0  0  0  0
   -1.6527    1.4622   -0.0005 H   0  0  0  0  0  0
   -0.2118    1.9978   -0.8869 H   0  0  0  0  0  0
   -0.2060    1.9924    0.8797 H   0  0  0  0  0  0
   -0.3970   -0.5256    0.8670 H   0  0  0  0  0  0
   -0.4002   -0.5186   -0.8910 H   0  0  0  0  0  0
    1.6741   -0.0307   -2.1610 H   0  0  0  0  0  0
    4.1540   -0.0048   -2.1474 H   0  0  0  0  0  0
    5.3904    0.0111   -0.0014 H   0  0  0  0  0  0
    1.6653   -0.0278    2.1295 H   0  0  0  0  0  0
    3.6955   -0.0144    3.3847 H   0  0  0  0  0  0
    5.0035    0.8919    2.6114 H   0  0  0  0  0  0
    5.0324   -0.8700    2.6028 H   0  0  0  0  0  0
  1  2  1  0  0  0
  1 10  1  0  0  0
  1 11  1  0  0  0
  1 12  1  0  0  0
  2  3  1  0  0  0
  2 13  1  0  0  0
  2 14  1  0  0  0
  3  8  1  0  0  0
  3  4  2  0  0  0
  4  5  1  0  0  0
  4 15  1  0  0  0
  5  6  2  0  0  0
  5 16  1  0  0  0
  6  7  1  0  0  0
  6 17  1  0  0  0
  7  8  2  0  0  0
  7  9  1  0  0  0
  8 18  1  0  0  0
  9 19  1  0  0  0
  9 20  1  0  0  0
  9 21  1  0  0  0
M  END
>  <i_m_Spin_multiplicity> (1)
1

>  <s_j_Task> (1)
Single Point

>  <s_j_QM_Method> (1)
DFT(b3lyp-d3)

>  <s_j_QM_Basis> (1)
cc-pvtz(-f)

>  <i_j_Number_of_canonical_orbitals> (1)
309

>  <i_j_Geometry_convergence_category> (1)
3

>  <r_j_Gas_Phase_Energy> (1)
-350.324649230031

>  <r_j_Final_Energy> (1)
-350.324649230031

>  <r_j_HOMO> (1)
-0.23902429535436

>  <r_j_LUMO> (1)
-0.0104286335230669

>  <r_j_Polarizability> (1)
103.265011135443

>  <r_j_QM_Dipole_(debye)> (1)
0.304684854175901

>  <r_j_QM_Dipole_X_(debye)> (1)
-0.10337217615826

>  <r_j_QM_Dipole_Y_(debye)> (1)
0.0483520364829373

>  <r_j_QM_Dipole_Z_(debye)> (1)
0.282505104606002

>  <r_j_Lowest_Frequency_(cm-1)> (1)
84.046919690691

>  <r_j_Highest_Frequency_(cm-1)> (1)
3136.02185095396

>  <r_j_2nd_Lowest_Frequency_(cm-1)> (1)
145.141522683921

>  <i_j_Num_Negative_Frequencies> (1)
0

>  <r_j_Zero_Point_Energy_(kcal/mol)> (1)
115.208699763115

>  <r_j_Entropy_(cal/mol/K)_298.15K_1.00E+00atm> (1)
89.4729154252879

>  <r_j_Enthalpy_(kcal/mol)_298.15K_1.00E+00atm> (1)
5.96276891447383

>  <r_j_Free_Energy_(kcal/mol)_298.15K_1.00E+00atm> (1)
-20.7135808195757

>  <r_j_Internal_Energy_(kcal/mol)_298.15K_1.00E+00atm> (1)
5.37028332564656

>  <r_j_Heat_Capacity_(cal/mol/K)_298.15K_1.00E+00atm> (1)
33.393310560765

>  <r_j_ln(Q)_298.15K_1.00E+00atm> (1)
34.9604804069155

>  <r_j_Total_Internal_Energy_(au)_298.15K_1.00E+00atm> (1)
-350.132494387988

>  <r_j_Total_Enthalpy_(au)_298.15K_1.00E+00atm> (1)
-350.131550202095

>  <r_j_Total_Free_Energy_(au)_298.15K_1.00E+00atm> (1)
-350.174061671658

>  <r_lp_tautomer_probability> (1)
1

>  <r_epik_Ionization_Penalty> (1)
  0.0000

>  <r_epik_Ionization_Penalty_Charging> (1)
  0.0000

>  <r_epik_Ionization_Penalty_Neutral> (1)
  0.0000

>  <r_epik_State_Penalty> (1)
  0.0000

>  <r_epik_Charging_Adjusted_Penalty> (1)
0

>  <i_epik_Tot_Q> (1)
0

>  <i_epik_Tot_abs_Q> (1)
0

>  <s_lp_Force_Field> (1)
S-OPLS

>  <r_lp_Energy> (1)
7.692193

>  <b_lp_Chiralities_Consistent> (1)
1

$$$$
