12161_4-methylstyrene
                    3D
 Schrodinger Suite 2021-3.
 19 19  0  0  1  0            999 V2000
   -0.0535    0.0437    0.0000 C   0  0  0  0  0  0
    1.4561    0.0180    0.0000 C   0  0  0  0  0  0
    2.2111    1.1936    0.0000 C   0  0  0  0  0  0
    3.6045    1.1520    0.0000 C   0  0  0  0  0  0
    4.2997   -0.0667    0.0000 C   0  0  0  0  0  0
    3.5358   -1.2489    0.0000 C   0  0  0  0  0  0
    2.1484   -1.2037    0.0000 C   0  0  0  0  0  0
    5.7712   -0.0541    0.0000 C   0  0  0  0  0  0
    6.5991   -1.1063   -0.0001 C   0  0  0  0  0  0
   -0.4391    1.0670   -0.0001 H   0  0  0  0  0  0
   -0.4586   -0.4675    0.8811 H   0  0  0  0  0  0
   -0.4586   -0.4675   -0.8811 H   0  0  0  0  0  0
    1.7044    2.1554   -0.0001 H   0  0  0  0  0  0
    4.1661    2.0832    0.0000 H   0  0  0  0  0  0
    4.0330   -2.2142    0.0001 H   0  0  0  0  0  0
    1.5845   -2.1337    0.0001 H   0  0  0  0  0  0
    6.2132    0.9423    0.0001 H   0  0  0  0  0  0
    6.2460   -2.1332   -0.0002 H   0  0  0  0  0  0
    7.6752   -0.9681    0.0000 H   0  0  0  0  0  0
  1  2  1  0  0  0
  1 10  1  0  0  0
  1 11  1  0  0  0
  1 12  1  0  0  0
  2  7  1  0  0  0
  2  3  2  0  0  0
  3  4  1  0  0  0
  3 13  1  0  0  0
  4  5  2  0  0  0
  4 14  1  0  0  0
  5  6  1  0  0  0
  5  8  1  0  0  0
  6  7  2  0  0  0
  6 15  1  0  0  0
  7 16  1  0  0  0
  8  9  2  0  0  0
  8 17  1  0  0  0
  9 18  1  0  0  0
  9 19  1  0  0  0
M  END
>  <i_m_Spin_multiplicity> (1)
1

>  <s_j_Task> (1)
Single Point

>  <s_j_QM_Method> (1)
DFT(b3lyp-d3)

>  <s_j_QM_Basis> (1)
cc-pvtz(-f)

>  <i_j_Number_of_canonical_orbitals> (1)
291

>  <i_j_Geometry_convergence_category> (1)
0

>  <r_j_Gas_Phase_Energy> (1)
-349.090408903854

>  <r_j_Final_Energy> (1)
-349.090408903854

>  <r_j_HOMO> (1)
-0.226143098678941

>  <r_j_LUMO> (1)
-0.0431059823345477

>  <r_j_Polarizability> (1)
108.189785791396

>  <r_j_QM_Dipole_(debye)> (1)
0.704044996798122

>  <r_j_QM_Dipole_X_(debye)> (1)
-0.703007420563584

>  <r_j_QM_Dipole_Y_(debye)> (1)
0.0382088639201293

>  <r_j_QM_Dipole_Z_(debye)> (1)
8.28669825600713e-05

>  <r_j_Lowest_Frequency_(cm-1)> (1)
95.4867124568167

>  <r_j_Highest_Frequency_(cm-1)> (1)
3183.02186590927

>  <r_j_2nd_Lowest_Frequency_(cm-1)> (1)
167.320747879903

>  <i_j_Num_Negative_Frequencies> (1)
0

>  <r_j_Zero_Point_Energy_(kcal/mol)> (1)
100.514217704573

>  <r_j_Entropy_(cal/mol/K)_298.15K_1.00E+00atm> (1)
87.2646722673065

>  <r_j_Enthalpy_(kcal/mol)_298.15K_1.00E+00atm> (1)
5.66431606115453

>  <r_j_Free_Energy_(kcal/mol)_298.15K_1.00E+00atm> (1)
-20.3536459753429

>  <r_j_Internal_Energy_(kcal/mol)_298.15K_1.00E+00atm> (1)
5.07183047232726

>  <r_j_Heat_Capacity_(cal/mol/K)_298.15K_1.00E+00atm> (1)
31.6189768171133

>  <r_j_ln(Q)_298.15K_1.00E+00atm> (1)
34.3529806617398

>  <r_j_Total_Internal_Energy_(au)_298.15K_1.00E+00atm> (1)
-348.922146824595

>  <r_j_Total_Enthalpy_(au)_298.15K_1.00E+00atm> (1)
-348.921202638703

>  <r_j_Total_Free_Energy_(au)_298.15K_1.00E+00atm> (1)
-348.962664900677

>  <r_lp_tautomer_probability> (1)
1

>  <r_epik_Ionization_Penalty> (1)
  0.0000

>  <r_epik_Ionization_Penalty_Charging> (1)
  0.0000

>  <r_epik_Ionization_Penalty_Neutral> (1)
  0.0000

>  <r_epik_State_Penalty> (1)
  0.0000

>  <r_epik_Charging_Adjusted_Penalty> (1)
0

>  <i_epik_Tot_Q> (1)
0

>  <i_epik_Tot_abs_Q> (1)
0

>  <s_lp_Force_Field> (1)
S-OPLS

>  <r_lp_Energy> (1)
7.4752

>  <b_lp_Chiralities_Consistent> (1)
1

$$$$
