121752_Dipropylene Glycol Monopropyl Ether
                    3D
 Schrodinger Suite 2021-3.
 32 31  0  0  1  0            999 V2000
   -0.8982    3.6991    1.9810 C   0  0  0  0  0  0
   -1.6362    3.0850    0.7868 C   0  0  0  0  0  0
   -1.4253    1.5851    0.6262 C   0  0  0  0  0  0
   -0.0491    1.3167    0.3695 O   0  0  0  0  0  0
    0.2116   -0.0292   -0.0070 C   0  0  0  0  0  0
    1.7179   -0.2494   -0.0642 C   0  0  0  0  0  0
    2.0728   -1.5642   -0.7569 C   0  0  0  0  0  0
    2.1996   -0.2817    1.2821 O   0  0  0  0  0  0
    3.3510    0.5069    1.5698 C   0  0  0  0  0  0
    2.9723    1.9042    2.0786 C   0  0  0  0  0  0
    2.1026    1.8286    3.3354 C   0  0  0  0  0  0
    2.3492    2.6699    1.0531 O   0  0  0  0  0  0
   -1.1762    4.7503    2.1072 H   0  0  0  0  0  0
    0.1849    3.6539    1.8494 H   0  0  0  0  0  0
   -1.1484    3.1728    2.9095 H   0  0  0  0  0  0
   -2.7166    3.2506    0.8872 H   0  0  0  0  0  0
   -1.3271    3.5793   -0.1420 H   0  0  0  0  0  0
   -1.7434    1.0473    1.5350 H   0  0  0  0  0  0
   -2.0334    1.2072   -0.2114 H   0  0  0  0  0  0
   -0.2188   -0.7290    0.7258 H   0  0  0  0  0  0
   -0.2436   -0.2366   -0.9886 H   0  0  0  0  0  0
    2.1626    0.5961   -0.6052 H   0  0  0  0  0  0
    1.7354   -1.5757   -1.7986 H   0  0  0  0  0  0
    1.6153   -2.4063   -0.2275 H   0  0  0  0  0  0
    3.1567   -1.7074   -0.7432 H   0  0  0  0  0  0
    3.9154   -0.0307    2.3420 H   0  0  0  0  0  0
    3.9942    0.6022    0.6836 H   0  0  0  0  0  0
    3.9092    2.4286    2.3127 H   0  0  0  0  0  0
    2.6212    1.3067    4.1470 H   0  0  0  0  0  0
    1.1820    1.2823    3.1113 H   0  0  0  0  0  0
    1.8427    2.8347    3.6742 H   0  0  0  0  0  0
    1.4836    2.2620    0.8670 H   0  0  0  0  0  0
  1  2  1  0  0  0
  1 13  1  0  0  0
  1 14  1  0  0  0
  1 15  1  0  0  0
  2  3  1  0  0  0
  2 16  1  0  0  0
  2 17  1  0  0  0
  3  4  1  0  0  0
  3 18  1  0  0  0
  3 19  1  0  0  0
  4  5  1  0  0  0
  5  6  1  0  0  0
  5 20  1  0  0  0
  5 21  1  0  0  0
  6  7  1  0  0  0
  6  8  1  0  0  0
  6 22  1  0  0  0
  7 23  1  0  0  0
  7 24  1  0  0  0
  7 25  1  0  0  0
  8  9  1  0  0  0
  9 10  1  0  0  0
  9 26  1  0  0  0
  9 27  1  0  0  0
 10 11  1  0  0  0
 10 12  1  0  0  0
 10 28  1  0  0  0
 11 29  1  0  0  0
 11 30  1  0  0  0
 11 31  1  0  0  0
 12 32  1  0  0  0
M  END
>  <i_m_Spin_multiplicity> (1)
1

>  <s_j_Task> (1)
Single Point

>  <s_j_QM_Method> (1)
DFT(b3lyp-d3)

>  <s_j_QM_Basis> (1)
cc-pvtz(-f)

>  <i_j_Number_of_canonical_orbitals> (1)
456

>  <i_j_Geometry_convergence_category> (1)
3

>  <r_j_Gas_Phase_Energy> (1)
-580.898514147432

>  <r_j_Final_Energy> (1)
-580.898514147432

>  <r_j_HOMO> (1)
-0.244227659492459

>  <r_j_LUMO> (1)
0.0296710296471178

>  <r_j_Polarizability> (1)
123.724633213098

>  <r_j_QM_Dipole_(debye)> (1)
2.09812674548913

>  <r_j_QM_Dipole_X_(debye)> (1)
-1.36959243186052

>  <r_j_QM_Dipole_Y_(debye)> (1)
-1.47948016488083

>  <r_j_QM_Dipole_Z_(debye)> (1)
-0.580939628921455

>  <r_j_Lowest_Frequency_(cm-1)> (1)
70.0758633234265

>  <r_j_Highest_Frequency_(cm-1)> (1)
3585.10844666937

>  <r_j_2nd_Lowest_Frequency_(cm-1)> (1)
79.2675558582857

>  <i_j_Num_Negative_Frequencies> (1)
0

>  <r_j_Zero_Point_Energy_(kcal/mol)> (1)
181.053444950647

>  <r_j_Entropy_(cal/mol/K)_298.15K_1.00E+00atm> (1)
114.202465865524

>  <r_j_Enthalpy_(kcal/mol)_298.15K_1.00E+00atm> (1)
9.34155512641259

>  <r_j_Free_Energy_(kcal/mol)_298.15K_1.00E+00atm> (1)
-24.7079100713935

>  <r_j_Internal_Energy_(kcal/mol)_298.15K_1.00E+00atm> (1)
8.74906953758531

>  <r_j_Heat_Capacity_(cal/mol/K)_298.15K_1.00E+00atm> (1)
53.0761172830836

>  <r_j_ln(Q)_298.15K_1.00E+00atm> (1)
41.7021283510012

>  <r_j_Total_Internal_Energy_(au)_298.15K_1.00E+00atm> (1)
-580.596044585518

>  <r_j_Total_Enthalpy_(au)_298.15K_1.00E+00atm> (1)
-580.595100399626

>  <r_j_Total_Free_Energy_(au)_298.15K_1.00E+00atm> (1)
-580.649361676667

>  <r_lp_tautomer_probability> (1)
1

>  <r_epik_Ionization_Penalty> (1)
  0.0000

>  <r_epik_Ionization_Penalty_Charging> (1)
  0.0000

>  <r_epik_Ionization_Penalty_Neutral> (1)
  0.0000

>  <r_epik_State_Penalty> (1)
  0.0000

>  <r_epik_Charging_Adjusted_Penalty> (1)
0

>  <i_epik_Tot_Q> (1)
0

>  <i_epik_Tot_abs_Q> (1)
0

>  <s_lp_Force_Field> (1)
S-OPLS

>  <r_lp_Energy> (1)
2.218

>  <b_lp_Chiralities_Consistent> (1)
1

$$$$
