12180_Methyl butyrate
                    3D
 Schrodinger Suite 2021-3.
 17 16  0  0  1  0            999 V2000
   -0.6118    1.4079   -0.0256 C   0  0  0  0  0  0
   -0.0082    0.0028   -0.0839 C   0  0  0  0  0  0
    1.5176    0.0190    0.1263 C   0  0  0  0  0  0
    2.1209   -1.3678    0.0920 C   0  0  0  0  0  0
    2.6585   -1.9316    1.0203 O   0  0  0  0  0  0
    1.9679   -1.9324   -1.1314 O   0  0  0  0  0  0
    2.4825   -3.2692   -1.2545 C   0  0  0  0  0  0
   -1.6955    1.3800   -0.1767 H   0  0  0  0  0  0
   -0.1823    2.0539   -0.7999 H   0  0  0  0  0  0
   -0.4211    1.8809    0.9443 H   0  0  0  0  0  0
   -0.4684   -0.6319    0.6837 H   0  0  0  0  0  0
   -0.2264   -0.4645   -1.0500 H   0  0  0  0  0  0
    1.9864    0.6221   -0.6608 H   0  0  0  0  0  0
    1.7729    0.4595    1.0934 H   0  0  0  0  0  0
    2.2760   -3.5732   -2.2808 H   0  0  0  0  0  0
    1.9871   -3.9401   -0.5474 H   0  0  0  0  0  0
    3.5577   -3.2883   -1.0570 H   0  0  0  0  0  0
  1  2  1  0  0  0
  1  8  1  0  0  0
  1  9  1  0  0  0
  1 10  1  0  0  0
  2  3  1  0  0  0
  2 11  1  0  0  0
  2 12  1  0  0  0
  3  4  1  0  0  0
  3 13  1  0  0  0
  3 14  1  0  0  0
  4  5  2  0  0  0
  4  6  1  0  0  0
  6  7  1  0  0  0
  7 15  1  0  0  0
  7 16  1  0  0  0
  7 17  1  0  0  0
M  END
>  <i_m_Spin_multiplicity> (1)
1

>  <s_j_Task> (1)
Single Point

>  <s_j_QM_Method> (1)
DFT(b3lyp-d3)

>  <s_j_QM_Basis> (1)
cc-pvtz(-f)

>  <i_j_Number_of_canonical_orbitals> (1)
250

>  <i_j_Geometry_convergence_category> (1)
3

>  <r_j_Gas_Phase_Energy> (1)
-347.152382345601

>  <r_j_Final_Energy> (1)
-347.152382345601

>  <r_j_HOMO> (1)
-0.284446414483591

>  <r_j_LUMO> (1)
-0.00450189215960587

>  <r_j_Polarizability> (1)
67.4854186308039

>  <r_j_QM_Dipole_(debye)> (1)
1.95392110620224

>  <r_j_QM_Dipole_X_(debye)> (1)
-0.933481551613626

>  <r_j_QM_Dipole_Y_(debye)> (1)
0.340653556968432

>  <r_j_QM_Dipole_Z_(debye)> (1)
-1.68237184836895

>  <r_j_Lowest_Frequency_(cm-1)> (1)
95.3385115150592

>  <r_j_Highest_Frequency_(cm-1)> (1)
3107.25659585765

>  <r_j_2nd_Lowest_Frequency_(cm-1)> (1)
132.402209673815

>  <i_j_Num_Negative_Frequencies> (1)
0

>  <r_j_Zero_Point_Energy_(kcal/mol)> (1)
92.1924091222454

>  <r_j_Entropy_(cal/mol/K)_298.15K_1.00E+00atm> (1)
87.2034470790884

>  <r_j_Enthalpy_(kcal/mol)_298.15K_1.00E+00atm> (1)
5.66851129451743

>  <r_j_Free_Energy_(kcal/mol)_298.15K_1.00E+00atm> (1)
-20.3311964521128

>  <r_j_Internal_Energy_(kcal/mol)_298.15K_1.00E+00atm> (1)
5.07602570569015

>  <r_j_Heat_Capacity_(cal/mol/K)_298.15K_1.00E+00atm> (1)
28.4351363309653

>  <r_j_ln(Q)_298.15K_1.00E+00atm> (1)
34.3150902494607

>  <r_j_Total_Internal_Energy_(au)_298.15K_1.00E+00atm> (1)
-346.997375227018

>  <r_j_Total_Enthalpy_(au)_298.15K_1.00E+00atm> (1)
-346.996431041126

>  <r_j_Total_Free_Energy_(au)_298.15K_1.00E+00atm> (1)
-347.037864213037

>  <r_lp_tautomer_probability> (1)
1

>  <r_epik_Ionization_Penalty> (1)
  0.0000

>  <r_epik_Ionization_Penalty_Charging> (1)
  0.0000

>  <r_epik_Ionization_Penalty_Neutral> (1)
  0.0000

>  <r_epik_State_Penalty> (1)
  0.0000

>  <r_epik_Charging_Adjusted_Penalty> (1)
0

>  <i_epik_Tot_Q> (1)
0

>  <i_epik_Tot_abs_Q> (1)
0

>  <s_lp_Force_Field> (1)
S-OPLS

>  <r_lp_Energy> (1)
1.8105

>  <b_lp_Chiralities_Consistent> (1)
1

>  <s_epik_Chemistry_Notes> (1)
This compound has an ester and may undergo hydrolysis at high or low pH.

$$$$
