122544_Stigmasterol
                    3D
 Schrodinger Suite 2021-3.
 78 81  0  0  1  0            999 V2000
   -1.2600   -1.3430   -1.0576 C   0  0  0  0  0  0
   -1.1646    0.0528   -0.4315 C   0  0  0  0  0  0
   -0.1066    0.2008    0.6952 C   0  0  0  0  0  0
    1.2838   -0.0004    0.1394 C   0  0  0  0  0  0
    2.1218    0.9692   -0.2290 C   0  0  0  0  0  0
    3.5171    0.7774   -0.7779 C   0  0  0  0  0  0
    4.5129    1.2548    0.3016 C   0  0  0  0  0  0
    3.6941    1.4971   -2.1599 C   0  0  0  0  0  0
    5.1627    1.8308   -2.5086 C   0  0  0  0  0  0
    5.7291    0.5426   -3.1408 C   0  0  0  0  0  0
    4.5000   -0.2924   -3.6122 C   0  0  0  0  0  0
    3.2518    0.6311   -3.3953 C   0  0  0  0  0  0
    3.0295    1.5560   -4.6235 C   0  0  0  0  0  0
    3.1363    0.8476   -5.9832 C   0  0  0  0  0  0
    4.5180    0.1794   -6.1362 C   0  0  0  0  0  0
    4.6828   -0.8843   -5.0263 C   0  0  0  0  0  0
    3.7758   -2.0989   -5.2953 C   0  0  0  0  0  0
    3.9101   -2.5818   -6.7108 C   0  0  0  0  0  0
    4.3831   -1.8393   -7.7242 C   0  0  0  0  0  0
    4.8582   -0.3957   -7.5534 C   0  0  0  0  0  0
    6.4102   -0.4174   -7.7422 C   0  0  0  0  0  0
    6.8721   -1.1338   -9.0245 C   0  0  0  0  0  0
    6.2654   -2.5413   -9.1635 C   0  0  0  0  0  0
    4.7216   -2.4776   -9.0523 C   0  0  0  0  0  0
    6.7988   -3.4328   -8.1876 O   0  0  0  0  0  0
    4.2457    0.5065   -8.6502 C   0  0  0  0  0  0
    1.9466   -0.1519   -3.1670 C   0  0  0  0  0  0
   -0.3490   -0.7289    1.9160 C   0  0  0  0  0  0
   -1.7815   -0.6303    2.4592 C   0  0  0  0  0  0
    0.6621   -0.4300    3.0338 C   0  0  0  0  0  0
   -2.0105   -1.3593   -1.8543 H   0  0  0  0  0  0
   -1.5470   -2.1006   -0.3207 H   0  0  0  0  0  0
   -0.3054   -1.6491   -1.4973 H   0  0  0  0  0  0
   -0.9166    0.7802   -1.2141 H   0  0  0  0  0  0
   -2.1473    0.3475   -0.0447 H   0  0  0  0  0  0
   -0.1809    1.2372    1.0573 H   0  0  0  0  0  0
    1.5940   -1.0380    0.0004 H   0  0  0  0  0  0
    1.8168    2.0101   -0.0931 H   0  0  0  0  0  0
    3.6865   -0.2980   -0.9141 H   0  0  0  0  0  0
    4.2665    0.7905    1.2613 H   0  0  0  0  0  0
    4.4648    2.3420    0.4352 H   0  0  0  0  0  0
    5.5452    0.9881    0.0569 H   0  0  0  0  0  0
    3.0978    2.4193   -2.1232 H   0  0  0  0  0  0
    5.1856    2.6466   -3.2369 H   0  0  0  0  0  0
    5.7459    2.1818   -1.6565 H   0  0  0  0  0  0
    6.4083    0.7689   -3.9697 H   0  0  0  0  0  0
    6.3138   -0.0305   -2.4129 H   0  0  0  0  0  0
    4.3921   -1.1435   -2.9267 H   0  0  0  0  0  0
    2.0468    2.0349   -4.5262 H   0  0  0  0  0  0
    3.7611    2.3711   -4.6253 H   0  0  0  0  0  0
    2.3374    0.1071   -6.1106 H   0  0  0  0  0  0
    2.9768    1.5974   -6.7618 H   0  0  0  0  0  0
    5.2585    0.9733   -5.9546 H   0  0  0  0  0  0
    5.7126   -1.2648   -5.0741 H   0  0  0  0  0  0
    4.0448   -2.9093   -4.6045 H   0  0  0  0  0  0
    2.7266   -1.8749   -5.0735 H   0  0  0  0  0  0
    3.6215   -3.6133   -6.9121 H   0  0  0  0  0  0
    6.7878    0.6130   -7.7355 H   0  0  0  0  0  0
    6.8628   -0.9222   -6.8810 H   0  0  0  0  0  0
    6.6056   -0.5435   -9.9100 H   0  0  0  0  0  0
    7.9634   -1.2247   -9.0230 H   0  0  0  0  0  0
    6.5463   -2.9665  -10.1340 H   0  0  0  0  0  0
    4.3197   -3.4942   -9.1115 H   0  0  0  0  0  0
    4.3193   -1.9116   -9.8999 H   0  0  0  0  0  0
    6.2992   -3.2825   -7.3704 H   0  0  0  0  0  0
    4.5220    1.5520   -8.4756 H   0  0  0  0  0  0
    3.1550    0.4378   -8.6661 H   0  0  0  0  0  0
    4.6029    0.2418   -9.6468 H   0  0  0  0  0  0
    1.5723   -0.5810   -4.0997 H   0  0  0  0  0  0
    1.1664    0.5062   -2.7763 H   0  0  0  0  0  0
    2.0697   -0.9714   -2.4551 H   0  0  0  0  0  0
   -0.1834   -1.7647    1.5845 H   0  0  0  0  0  0
   -2.0266    0.4057    2.7241 H   0  0  0  0  0  0
   -1.8942   -1.2381    3.3633 H   0  0  0  0  0  0
   -2.5261   -0.9760    1.7364 H   0  0  0  0  0  0
    0.5284    0.5918    3.4109 H   0  0  0  0  0  0
    1.6934   -0.5173    2.6798 H   0  0  0  0  0  0
    0.5306   -1.1166    3.8769 H   0  0  0  0  0  0
  1  2  1  0  0  0
  1 31  1  0  0  0
  1 32  1  0  0  0
  1 33  1  0  0  0
  2  3  1  0  0  0
  2 34  1  0  0  0
  2 35  1  0  0  0
  3  4  1  0  0  0
  3 28  1  0  0  0
  3 36  1  0  0  0
  4  5  2  0  0  0
  4 37  1  0  0  0
  5  6  1  0  0  0
  5 38  1  0  0  0
  6  7  1  0  0  0
  6  8  1  0  0  0
  6 39  1  0  0  0
  7 40  1  0  0  0
  7 41  1  0  0  0
  7 42  1  0  0  0
  8 12  1  0  0  0
  8  9  1  0  0  0
  8 43  1  0  0  0
  9 10  1  0  0  0
  9 44  1  0  0  0
  9 45  1  0  0  0
 10 11  1  0  0  0
 10 46  1  0  0  0
 10 47  1  0  0  0
 11 16  1  0  0  0
 11 12  1  0  0  0
 11 48  1  0  0  0
 12 13  1  0  0  0
 12 27  1  0  0  0
 13 14  1  0  0  0
 13 49  1  0  0  0
 13 50  1  0  0  0
 14 15  1  0  0  0
 14 51  1  0  0  0
 14 52  1  0  0  0
 15 20  1  0  0  0
 15 16  1  0  0  0
 15 53  1  0  0  0
 16 17  1  0  0  0
 16 54  1  0  0  0
 17 18  1  0  0  0
 17 55  1  0  0  0
 17 56  1  0  0  0
 18 19  2  0  0  0
 18 57  1  0  0  0
 19 24  1  0  0  0
 19 20  1  0  0  0
 20 21  1  0  0  0
 20 26  1  0  0  0
 21 22  1  0  0  0
 21 58  1  0  0  0
 21 59  1  0  0  0
 22 23  1  0  0  0
 22 60  1  0  0  0
 22 61  1  0  0  0
 23 24  1  0  0  0
 23 25  1  0  0  0
 23 62  1  0  0  0
 24 63  1  0  0  0
 24 64  1  0  0  0
 25 65  1  0  0  0
 26 66  1  0  0  0
 26 67  1  0  0  0
 26 68  1  0  0  0
 27 69  1  0  0  0
 27 70  1  0  0  0
 27 71  1  0  0  0
 28 29  1  0  0  0
 28 30  1  0  0  0
 28 72  1  0  0  0
 29 73  1  0  0  0
 29 74  1  0  0  0
 29 75  1  0  0  0
 30 76  1  0  0  0
 30 77  1  0  0  0
 30 78  1  0  0  0
M  END
>  <i_m_Spin_multiplicity> (1)
1

>  <s_j_Task> (1)
Single Point

>  <s_j_QM_Method> (1)
DFT(b3lyp-d3)

>  <s_j_QM_Basis> (1)
cc-pvtz(-f)

>  <i_j_Number_of_canonical_orbitals> (1)
1102

>  <i_j_Geometry_convergence_category> (1)
3

>  <r_j_Gas_Phase_Energy> (1)
-1209.68924894948

>  <r_j_Final_Energy> (1)
-1209.68924894948

>  <r_j_HOMO> (1)
-0.209707906781128

>  <r_j_LUMO> (1)
0.0130799773910407

>  <r_j_Polarizability> (1)
333.199392970256

>  <r_j_QM_Dipole_(debye)> (1)
2.01819088779003

>  <r_j_QM_Dipole_X_(debye)> (1)
-1.26521887187917

>  <r_j_QM_Dipole_Y_(debye)> (1)
1.51324790854129

>  <r_j_QM_Dipole_Z_(debye)> (1)
0.427078954170002

>  <r_j_Lowest_Frequency_(cm-1)> (1)
33.6938566551008

>  <r_j_Highest_Frequency_(cm-1)> (1)
3690.79538766358

>  <r_j_2nd_Lowest_Frequency_(cm-1)> (1)
45.2024941394514

>  <i_j_Num_Negative_Frequencies> (1)
0

>  <r_j_Zero_Point_Energy_(kcal/mol)> (1)
450.599754245377

>  <r_j_Entropy_(cal/mol/K)_298.15K_1.00E+00atm> (1)
175.242803356663

>  <r_j_Enthalpy_(kcal/mol)_298.15K_1.00E+00atm> (1)
18.7184214886687

>  <r_j_Free_Energy_(kcal/mol)_298.15K_1.00E+00atm> (1)
-33.5302203321202

>  <r_j_Internal_Energy_(kcal/mol)_298.15K_1.00E+00atm> (1)
18.1259358998415

>  <r_j_Heat_Capacity_(cal/mol/K)_298.15K_1.00E+00atm> (1)
124.230163844537

>  <r_j_ln(Q)_298.15K_1.00E+00atm> (1)
56.5924656471183

>  <r_j_Total_Internal_Energy_(au)_298.15K_1.00E+00atm> (1)
-1208.94228701097

>  <r_j_Total_Enthalpy_(au)_298.15K_1.00E+00atm> (1)
-1208.94134282507

>  <r_j_Total_Free_Energy_(au)_298.15K_1.00E+00atm> (1)
-1209.02460633633

>  <r_lp_tautomer_probability> (1)
1

>  <r_epik_Ionization_Penalty> (1)
  0.0000

>  <r_epik_Ionization_Penalty_Charging> (1)
  0.0000

>  <r_epik_Ionization_Penalty_Neutral> (1)
  0.0000

>  <r_epik_State_Penalty> (1)
  0.0000

>  <r_epik_Charging_Adjusted_Penalty> (1)
0

>  <i_epik_Tot_Q> (1)
0

>  <i_epik_Tot_abs_Q> (1)
0

>  <s_lp_Force_Field> (1)
S-OPLS

>  <r_lp_Energy> (1)
44.936255

>  <b_lp_Chiralities_Consistent> (1)
1

$$$$
