12256_Ethylisopropyl ether
                    3D
 Schrodinger Suite 2021-3.
 18 17  0  0  1  0            999 V2000
   -2.1303    1.0736   -0.0798 C   0  0  0  0  0  0
   -0.6287    1.2906    0.0156 C   0  0  0  0  0  0
   -0.0121    0.0159    0.0941 O   0  0  0  0  0  0
    1.4153    0.0211    0.0535 C   0  0  0  0  0  0
    1.8316   -1.4066   -0.2821 C   0  0  0  0  0  0
    2.0191    0.4985    1.3778 C   0  0  0  0  0  0
   -2.6563    2.0312   -0.1457 H   0  0  0  0  0  0
   -2.4917    0.5367    0.8021 H   0  0  0  0  0  0
   -2.3721    0.4778   -0.9646 H   0  0  0  0  0  0
   -0.2604    1.8396   -0.8686 H   0  0  0  0  0  0
   -0.3916    1.9066    0.8978 H   0  0  0  0  0  0
    1.7493    0.6942   -0.7560 H   0  0  0  0  0  0
    2.9200   -1.4871   -0.3621 H   0  0  0  0  0  0
    1.3827   -1.7205   -1.2282 H   0  0  0  0  0  0
    1.4887   -2.0890    0.5025 H   0  0  0  0  0  0
    3.1127    0.4607    1.3388 H   0  0  0  0  0  0
    1.6773   -0.1456    2.1946 H   0  0  0  0  0  0
    1.7299    1.5278    1.6086 H   0  0  0  0  0  0
  1  2  1  0  0  0
  1  7  1  0  0  0
  1  8  1  0  0  0
  1  9  1  0  0  0
  2  3  1  0  0  0
  2 10  1  0  0  0
  2 11  1  0  0  0
  3  4  1  0  0  0
  4  5  1  0  0  0
  4  6  1  0  0  0
  4 12  1  0  0  0
  5 13  1  0  0  0
  5 14  1  0  0  0
  5 15  1  0  0  0
  6 16  1  0  0  0
  6 17  1  0  0  0
  6 18  1  0  0  0
M  END
>  <i_m_Spin_multiplicity> (1)
1

>  <s_j_Task> (1)
Single Point

>  <s_j_QM_Method> (1)
DFT(b3lyp-d3)

>  <s_j_QM_Basis> (1)
cc-pvtz(-f)

>  <i_j_Number_of_canonical_orbitals> (1)
246

>  <i_j_Geometry_convergence_category> (1)
1

>  <r_j_Gas_Phase_Energy> (1)
-273.091271376163

>  <r_j_Final_Energy> (1)
-273.091271376163

>  <r_j_HOMO> (1)
-0.25462989518343

>  <r_j_LUMO> (1)
0.0341108524620165

>  <r_j_Polarizability> (1)
68.4026545730955

>  <r_j_QM_Dipole_(debye)> (1)
1.09780969055516

>  <r_j_QM_Dipole_X_(debye)> (1)
0.599112642967203

>  <r_j_QM_Dipole_Y_(debye)> (1)
0.91709031352022

>  <r_j_QM_Dipole_Z_(debye)> (1)
-0.0720799178762197

>  <r_j_Lowest_Frequency_(cm-1)> (1)
107.80755558193

>  <r_j_Highest_Frequency_(cm-1)> (1)
3071.2066523138

>  <r_j_2nd_Lowest_Frequency_(cm-1)> (1)
136.873922492561

>  <i_j_Num_Negative_Frequencies> (1)
0

>  <r_j_Zero_Point_Energy_(kcal/mol)> (1)
102.89155032734

>  <r_j_Entropy_(cal/mol/K)_298.15K_1.00E+00atm> (1)
83.6647017227684

>  <r_j_Enthalpy_(kcal/mol)_298.15K_1.00E+00atm> (1)
5.40378148534096

>  <r_j_Free_Energy_(kcal/mol)_298.15K_1.00E+00atm> (1)
-19.5408493333024

>  <r_j_Internal_Energy_(kcal/mol)_298.15K_1.00E+00atm> (1)
4.81129589651368

>  <r_j_Heat_Capacity_(cal/mol/K)_298.15K_1.00E+00atm> (1)
27.8671462972707

>  <r_j_ln(Q)_298.15K_1.00E+00atm> (1)
32.9811386163506

>  <r_j_Total_Internal_Energy_(au)_298.15K_1.00E+00atm> (1)
-272.919635964471

>  <r_j_Total_Enthalpy_(au)_298.15K_1.00E+00atm> (1)
-272.918691778579

>  <r_j_Total_Free_Energy_(au)_298.15K_1.00E+00atm> (1)
-272.95844357837

>  <r_lp_tautomer_probability> (1)
1

>  <r_epik_Ionization_Penalty> (1)
  0.0000

>  <r_epik_Ionization_Penalty_Charging> (1)
  0.0000

>  <r_epik_Ionization_Penalty_Neutral> (1)
  0.0000

>  <r_epik_State_Penalty> (1)
  0.0000

>  <r_epik_Charging_Adjusted_Penalty> (1)
0

>  <i_epik_Tot_Q> (1)
0

>  <i_epik_Tot_abs_Q> (1)
0

>  <s_lp_Force_Field> (1)
S-OPLS

>  <r_lp_Energy> (1)
0.186159

>  <b_lp_Chiralities_Consistent> (1)
1

$$$$
