12292_3-Methyladipic acid
                    3D
 Schrodinger Suite 2021-3.
 21 20  0  0  1  0            999 V2000
   -0.4568   -0.8720   -1.2819 C   0  0  0  0  0  0
   -0.0146   -0.0042   -0.0919 C   0  0  0  0  0  0
    1.5272    0.0797   -0.0295 C   0  0  0  0  0  0
    2.1340    1.1016    0.9387 C   0  0  0  0  0  0
    3.6723    1.3869    0.7309 C   0  0  0  0  0  0
    4.2850    1.7940    1.7546 O   0  0  0  0  0  0
    4.1231    1.2209   -0.4355 O   0  5  0  0  0  0
   -0.6671   -0.5172    1.2031 C   0  0  0  0  0  0
   -2.2414   -0.4974    1.2733 C   0  0  0  0  0  0
   -2.7336   -1.1565    2.2273 O   0  0  0  0  0  0
   -2.8479    0.1840    0.3997 O   0  5  0  0  0  0
   -0.1055   -1.9078   -1.1558 H   0  0  0  0  0  0
   -0.0398   -0.4992   -2.2288 H   0  0  0  0  0  0
   -1.5485   -0.8724   -1.3395 H   0  0  0  0  0  0
   -0.4176    1.0042   -0.2668 H   0  0  0  0  0  0
    1.9260   -0.9217    0.2058 H   0  0  0  0  0  0
    1.9298    0.3244   -1.0214 H   0  0  0  0  0  0
    1.6111    2.0646    0.8097 H   0  0  0  0  0  0
    1.9782    0.8177    1.9863 H   0  0  0  0  0  0
   -0.3357   -1.5478    1.4061 H   0  0  0  0  0  0
   -0.3047    0.0747    2.0555 H   0  0  0  0  0  0
  1  2  1  0  0  0
  1 12  1  0  0  0
  1 13  1  0  0  0
  1 14  1  0  0  0
  2  3  1  0  0  0
  2  8  1  0  0  0
  2 15  1  0  0  0
  3  4  1  0  0  0
  3 16  1  0  0  0
  3 17  1  0  0  0
  4  5  1  0  0  0
  4 18  1  0  0  0
  4 19  1  0  0  0
  5  6  2  0  0  0
  5  7  1  0  0  0
  8  9  1  0  0  0
  8 20  1  0  0  0
  8 21  1  0  0  0
  9 10  2  0  0  0
  9 11  1  0  0  0
M  END
>  <i_m_Spin_multiplicity> (1)
1

>  <s_j_Task> (1)
Single Point

>  <s_j_QM_Method> (1)
DFT(b3lyp-d3)

>  <s_j_QM_Basis> (1)
cc-pvtz(-f)

>  <i_j_Number_of_canonical_orbitals> (1)
341

>  <i_j_Geometry_convergence_category> (1)
1

>  <r_j_Gas_Phase_Energy> (1)
-573.922168422898

>  <r_j_Final_Energy> (1)
-573.922168422898

>  <r_j_HOMO> (1)
0.0593146496879164

>  <r_j_LUMO> (1)
0.267922894820657

>  <r_j_Polarizability> (1)
102.959869301895

>  <r_j_QM_Dipole_(debye)> (1)
3.25160568981018

>  <r_j_QM_Dipole_X_(debye)> (1)
-0.967736431032668

>  <r_j_QM_Dipole_Y_(debye)> (1)
-1.71677933302857

>  <r_j_QM_Dipole_Z_(debye)> (1)
-2.58632837894651

>  <r_j_Lowest_Frequency_(cm-1)> (1)
68.9521673277508

>  <r_j_Highest_Frequency_(cm-1)> (1)
3058.66875128163

>  <r_j_2nd_Lowest_Frequency_(cm-1)> (1)
78.7884583020032

>  <i_j_Num_Negative_Frequencies> (1)
0

>  <r_j_Zero_Point_Energy_(kcal/mol)> (1)
102.580430508074

>  <r_j_Entropy_(cal/mol/K)_298.15K_1.00E+00atm> (1)
103.94815848187

>  <r_j_Enthalpy_(kcal/mol)_298.15K_1.00E+00atm> (1)
7.55289941936655

>  <r_j_Free_Energy_(kcal/mol)_298.15K_1.00E+00atm> (1)
-23.4392440320029

>  <r_j_Internal_Energy_(kcal/mol)_298.15K_1.00E+00atm> (1)
6.96041383053928

>  <r_j_Heat_Capacity_(cal/mol/K)_298.15K_1.00E+00atm> (1)
40.293309676758

>  <r_j_ln(Q)_298.15K_1.00E+00atm> (1)
39.5608677645594

>  <r_j_Total_Internal_Energy_(au)_298.15K_1.00E+00atm> (1)
-573.747603974749

>  <r_j_Total_Enthalpy_(au)_298.15K_1.00E+00atm> (1)
-573.746659788857

>  <r_j_Total_Free_Energy_(au)_298.15K_1.00E+00atm> (1)
-573.796048913537

>  <r_lp_tautomer_probability> (1)
1

>  <r_epik_Ionization_Penalty> (1)
  0.0120

>  <r_epik_Ionization_Penalty_Charging> (1)
  0.0120

>  <r_epik_Ionization_Penalty_Neutral> (1)
  0.0000

>  <r_epik_State_Penalty> (1)
  0.0000

>  <r_epik_Charging_Adjusted_Penalty> (1)
0.0119608

>  <i_epik_Tot_Q> (1)
-2

>  <i_epik_Tot_abs_Q> (1)
2

>  <s_lp_Force_Field> (1)
S-OPLS

>  <r_lp_Energy> (1)
11.2812

>  <b_lp_Chiralities_Consistent> (1)
1

$$$$
