12303119_20S-5a(H),14B(H),17B(H)-cholestane
                    3D
 Schrodinger Suite 2021-3.
 75 78  0  0  1  0            999 V2000
   -2.7977    1.1933   -1.5062 C   0  0  0  0  0  0
   -1.9984    2.0723   -0.5327 C   0  0  0  0  0  0
   -2.1513    3.5551   -0.9000 C   0  0  0  0  0  0
   -0.5095    1.6805   -0.4749 C   0  0  0  0  0  0
   -0.2382    0.2400   -0.0216 C   0  0  0  0  0  0
    1.2537   -0.0385    0.2119 C   0  0  0  0  0  0
    1.6064   -1.5257    0.4430 C   0  0  0  0  0  0
    0.8631   -2.0963    1.6621 C   0  0  0  0  0  0
    3.1519   -1.7048    0.4802 C   0  0  0  0  0  0
    3.8128   -1.1310    1.7659 C   0  0  0  0  0  0
    4.2249   -2.3415    2.6425 C   0  0  0  0  0  0
    3.8357   -3.6263    1.8641 C   0  0  0  0  0  0
    3.7120   -3.1677    0.3793 C   0  0  0  0  0  0
    5.1321   -3.0999   -0.2420 C   0  0  0  0  0  0
    5.9679   -4.3729   -0.0407 C   0  0  0  0  0  0
    6.1632   -4.6804    1.4585 C   0  0  0  0  0  0
    4.7808   -4.8172    2.1595 C   0  0  0  0  0  0
    4.1220   -6.1826    1.8734 C   0  0  0  0  0  0
    5.0455   -7.3582    2.2125 C   0  0  0  0  0  0
    6.3852   -7.2379    1.4734 C   0  0  0  0  0  0
    7.1083   -5.8913    1.7895 C   0  0  0  0  0  0
    8.4063   -5.8371    0.9412 C   0  0  0  0  0  0
    9.3367   -7.0407    1.1669 C   0  0  0  0  0  0
    8.5985   -8.3600    0.8920 C   0  0  0  0  0  0
    7.2938   -8.4602    1.6971 C   0  0  0  0  0  0
    7.5035   -5.7862    3.2834 C   0  0  0  0  0  0
    2.8307   -4.0729   -0.4970 C   0  0  0  0  0  0
   -2.3840    1.2649   -2.5200 H   0  0  0  0  0  0
   -3.8450    1.5113   -1.5519 H   0  0  0  0  0  0
   -2.7852    0.1391   -1.2139 H   0  0  0  0  0  0
   -2.4178    1.9280    0.4749 H   0  0  0  0  0  0
   -1.7526    3.7492   -1.9036 H   0  0  0  0  0  0
   -1.6116    4.1998   -0.1974 H   0  0  0  0  0  0
   -3.2035    3.8601   -0.8968 H   0  0  0  0  0  0
   -0.0580    1.8429   -1.4652 H   0  0  0  0  0  0
    0.0066    2.3697    0.2086 H   0  0  0  0  0  0
   -0.8061    0.0478    0.8978 H   0  0  0  0  0  0
   -0.6204   -0.4661   -0.7706 H   0  0  0  0  0  0
    1.8164    0.3181   -0.6624 H   0  0  0  0  0  0
    1.6012    0.5673    1.0602 H   0  0  0  0  0  0
    1.2396   -2.0620   -0.4424 H   0  0  0  0  0  0
    1.1811   -1.6100    2.5913 H   0  0  0  0  0  0
    1.0303   -3.1692    1.7755 H   0  0  0  0  0  0
   -0.2166   -1.9504    1.5684 H   0  0  0  0  0  0
    3.5209   -1.1575   -0.3982 H   0  0  0  0  0  0
    4.6904   -0.5312    1.5063 H   0  0  0  0  0  0
    3.1390   -0.4547    2.2993 H   0  0  0  0  0  0
    5.3022   -2.3230    2.8377 H   0  0  0  0  0  0
    3.7372   -2.3259    3.6228 H   0  0  0  0  0  0
    2.8397   -3.9315    2.2031 H   0  0  0  0  0  0
    5.0422   -2.8745   -1.3127 H   0  0  0  0  0  0
    5.6856   -2.2604    0.1987 H   0  0  0  0  0  0
    5.5028   -5.2219   -0.5553 H   0  0  0  0  0  0
    6.9364   -4.2204   -0.5252 H   0  0  0  0  0  0
    6.6585   -3.7923    1.8797 H   0  0  0  0  0  0
    4.9541   -4.7881    3.2438 H   0  0  0  0  0  0
    3.1859   -6.2549    2.4416 H   0  0  0  0  0  0
    3.8407   -6.2565    0.8179 H   0  0  0  0  0  0
    5.2178   -7.4045    3.2960 H   0  0  0  0  0  0
    4.5612   -8.3051    1.9410 H   0  0  0  0  0  0
    6.1536   -7.2167    0.3963 H   0  0  0  0  0  0
    8.1424   -5.8264   -0.1225 H   0  0  0  0  0  0
    8.9370   -4.8963    1.1403 H   0  0  0  0  0  0
   10.2110   -6.9550    0.5103 H   0  0  0  0  0  0
    9.7260   -7.0406    2.1922 H   0  0  0  0  0  0
    8.3571   -8.4136   -0.1795 H   0  0  0  0  0  0
    9.2484   -9.2165    1.1080 H   0  0  0  0  0  0
    7.5220   -8.5657    2.7660 H   0  0  0  0  0  0
    6.7483   -9.3696    1.4140 H   0  0  0  0  0  0
    8.1391   -6.6122    3.6081 H   0  0  0  0  0  0
    6.6381   -5.7722    3.9481 H   0  0  0  0  0  0
    8.0619   -4.8589    3.4543 H   0  0  0  0  0  0
    3.3192   -5.0230   -0.7228 H   0  0  0  0  0  0
    2.6218   -3.5873   -1.4575 H   0  0  0  0  0  0
    1.8731   -4.3048   -0.0225 H   0  0  0  0  0  0
  1  2  1  0  0  0
  1 28  1  0  0  0
  1 29  1  0  0  0
  1 30  1  0  0  0
  2  3  1  0  0  0
  2  4  1  0  0  0
  2 31  1  0  0  0
  3 32  1  0  0  0
  3 33  1  0  0  0
  3 34  1  0  0  0
  4  5  1  0  0  0
  4 35  1  0  0  0
  4 36  1  0  0  0
  5  6  1  0  0  0
  5 37  1  0  0  0
  5 38  1  0  0  0
  6  7  1  0  0  0
  6 39  1  0  0  0
  6 40  1  0  0  0
  7  8  1  0  0  0
  7  9  1  0  0  0
  7 41  1  0  0  0
  8 42  1  0  0  0
  8 43  1  0  0  0
  8 44  1  0  0  0
  9 13  1  0  0  0
  9 10  1  0  0  0
  9 45  1  0  0  0
 10 11  1  0  0  0
 10 46  1  0  0  0
 10 47  1  0  0  0
 11 12  1  0  0  0
 11 48  1  0  0  0
 11 49  1  0  0  0
 12 17  1  0  0  0
 12 13  1  0  0  0
 12 50  1  0  0  0
 13 14  1  0  0  0
 13 27  1  0  0  0
 14 15  1  0  0  0
 14 51  1  0  0  0
 14 52  1  0  0  0
 15 16  1  0  0  0
 15 53  1  0  0  0
 15 54  1  0  0  0
 16 21  1  0  0  0
 16 17  1  0  0  0
 16 55  1  0  0  0
 17 18  1  0  0  0
 17 56  1  0  0  0
 18 19  1  0  0  0
 18 57  1  0  0  0
 18 58  1  0  0  0
 19 20  1  0  0  0
 19 59  1  0  0  0
 19 60  1  0  0  0
 20 25  1  0  0  0
 20 21  1  0  0  0
 20 61  1  0  0  0
 21 22  1  0  0  0
 21 26  1  0  0  0
 22 23  1  0  0  0
 22 62  1  0  0  0
 22 63  1  0  0  0
 23 24  1  0  0  0
 23 64  1  0  0  0
 23 65  1  0  0  0
 24 25  1  0  0  0
 24 66  1  0  0  0
 24 67  1  0  0  0
 25 68  1  0  0  0
 25 69  1  0  0  0
 26 70  1  0  0  0
 26 71  1  0  0  0
 26 72  1  0  0  0
 27 73  1  0  0  0
 27 74  1  0  0  0
 27 75  1  0  0  0
M  END
>  <i_m_Spin_multiplicity> (1)
1

>  <s_j_Task> (1)
Single Point

>  <s_j_QM_Method> (1)
DFT(b3lyp-d3)

>  <s_j_QM_Basis> (1)
cc-pvtz(-f)

>  <i_j_Number_of_canonical_orbitals> (1)
1035

>  <i_j_Geometry_convergence_category> (1)
3

>  <r_j_Gas_Phase_Energy> (1)
-1058.24850219792

>  <r_j_Final_Energy> (1)
-1058.24850219792

>  <r_j_HOMO> (1)
-0.28912511550804

>  <r_j_LUMO> (1)
-0.0146387880529347

>  <r_j_Polarizability> (1)
307.125567538557

>  <r_j_QM_Dipole_(debye)> (1)
0.0932452463928512

>  <r_j_QM_Dipole_X_(debye)> (1)
0.0374481818655564

>  <r_j_QM_Dipole_Y_(debye)> (1)
-0.0820527897200126

>  <r_j_QM_Dipole_Z_(debye)> (1)
-0.0236569091174469

>  <r_j_Lowest_Frequency_(cm-1)> (1)
39.0369836598542

>  <r_j_Highest_Frequency_(cm-1)> (1)
3082.35112886099

>  <r_j_2nd_Lowest_Frequency_(cm-1)> (1)
43.1794225161986

>  <i_j_Num_Negative_Frequencies> (1)
0

>  <r_j_Zero_Point_Energy_(kcal/mol)> (1)
441.80447352566

>  <r_j_Entropy_(cal/mol/K)_298.15K_1.00E+00atm> (1)
164.881976817244

>  <r_j_Enthalpy_(kcal/mol)_298.15K_1.00E+00atm> (1)
17.1231772234272

>  <r_j_Free_Energy_(kcal/mol)_298.15K_1.00E+00atm> (1)
-32.0363841646341

>  <r_j_Internal_Energy_(kcal/mol)_298.15K_1.00E+00atm> (1)
16.5306916345999

>  <r_j_Heat_Capacity_(cal/mol/K)_298.15K_1.00E+00atm> (1)
113.197676786808

>  <r_j_ln(Q)_298.15K_1.00E+00atm> (1)
54.0711618455475

>  <r_j_Total_Internal_Energy_(au)_298.15K_1.00E+00atm> (1)
-1057.51809861507

>  <r_j_Total_Enthalpy_(au)_298.15K_1.00E+00atm> (1)
-1057.51715442918

>  <r_j_Total_Free_Energy_(au)_298.15K_1.00E+00atm> (1)
-1057.59549517739

>  <r_lp_tautomer_probability> (1)
1

>  <r_epik_Ionization_Penalty> (1)
  0.0000

>  <r_epik_Ionization_Penalty_Charging> (1)
  0.0000

>  <r_epik_Ionization_Penalty_Neutral> (1)
  0.0000

>  <r_epik_State_Penalty> (1)
  0.0000

>  <r_epik_Charging_Adjusted_Penalty> (1)
0

>  <i_epik_Tot_Q> (1)
0

>  <i_epik_Tot_abs_Q> (1)
0

>  <s_lp_Force_Field> (1)
S-OPLS

>  <r_lp_Energy> (1)
55.977292

>  <b_lp_Chiralities_Consistent> (1)
1

$$$$
