12398_Heptadecane
                    3D
 Schrodinger Suite 2021-3.
 53 52  0  0  1  0            999 V2000
   -7.1083    2.2271    2.7142 C   0  0  0  0  0  0
   -6.3849    2.8599    1.5219 C   0  0  0  0  0  0
   -4.8762    2.5835    1.5175 C   0  0  0  0  0  0
   -4.1526    3.2146    0.3204 C   0  0  0  0  0  0
   -2.6268    3.0358    0.3270 C   0  0  0  0  0  0
   -2.1527    1.5821    0.1951 C   0  0  0  0  0  0
   -0.6278    1.4553    0.0977 C   0  0  0  0  0  0
   -0.1388    0.0071   -0.0232 C   0  0  0  0  0  0
    1.3873   -0.1028   -0.1423 C   0  0  0  0  0  0
    1.9250   -1.5414   -0.1702 C   0  0  0  0  0  0
    1.4885   -2.3635   -1.3905 C   0  0  0  0  0  0
    2.1258   -3.7574   -1.4320 C   0  0  0  0  0  0
    1.6934   -4.5956   -2.6404 C   0  0  0  0  0  0
    2.3447   -5.9828   -2.6788 C   0  0  0  0  0  0
    1.9180   -6.8298   -3.8828 C   0  0  0  0  0  0
    2.5780   -8.2136   -3.9169 C   0  0  0  0  0  0
    2.1472   -9.0559   -5.1212 C   0  0  0  0  0  0
   -8.1822    2.4399    2.6939 H   0  0  0  0  0  0
   -6.7108    2.6067    3.6627 H   0  0  0  0  0  0
   -6.9839    1.1379    2.7179 H   0  0  0  0  0  0
   -6.8227    2.4867    0.5858 H   0  0  0  0  0  0
   -6.5536    3.9455    1.5230 H   0  0  0  0  0  0
   -4.4341    2.9638    2.4503 H   0  0  0  0  0  0
   -4.7130    1.4977    1.5257 H   0  0  0  0  0  0
   -4.5620    2.7962   -0.6106 H   0  0  0  0  0  0
   -4.3834    4.2884    0.2961 H   0  0  0  0  0  0
   -2.1984    3.6216   -0.4978 H   0  0  0  0  0  0
   -2.2149    3.4680    1.2505 H   0  0  0  0  0  0
   -2.5067    0.9926    1.0511 H   0  0  0  0  0  0
   -2.6131    1.1305   -0.6959 H   0  0  0  0  0  0
   -0.2706    2.0320   -0.7678 H   0  0  0  0  0  0
   -0.1674    1.9215    0.9808 H   0  0  0  0  0  0
   -0.4763   -0.5663    0.8527 H   0  0  0  0  0  0
   -0.6172   -0.4599   -0.8941 H   0  0  0  0  0  0
    1.7174    0.4246   -1.0491 H   0  0  0  0  0  0
    1.8461    0.4308    0.7013 H   0  0  0  0  0  0
    3.0228   -1.5099   -0.1414 H   0  0  0  0  0  0
    1.6133   -2.0626    0.7466 H   0  0  0  0  0  0
    0.3958   -2.4694   -1.4003 H   0  0  0  0  0  0
    1.7490   -1.8162   -2.3083 H   0  0  0  0  0  0
    3.2207   -3.6557   -1.4345 H   0  0  0  0  0  0
    1.8759   -4.2981   -0.5077 H   0  0  0  0  0  0
    0.5995   -4.7066   -2.6343 H   0  0  0  0  0  0
    1.9368   -4.0534   -3.5655 H   0  0  0  0  0  0
    3.4384   -5.8691   -2.6850 H   0  0  0  0  0  0
    2.1032   -6.5226   -1.7518 H   0  0  0  0  0  0
    0.8248   -6.9488   -3.8761 H   0  0  0  0  0  0
    2.1569   -6.2907   -4.8111 H   0  0  0  0  0  0
    3.6699   -8.0924   -3.9244 H   0  0  0  0  0  0
    2.3395   -8.7503   -2.9883 H   0  0  0  0  0  0
    2.6329  -10.0373   -5.1214 H   0  0  0  0  0  0
    2.4032   -8.5566   -6.0629 H   0  0  0  0  0  0
    1.0633   -9.2198   -5.1199 H   0  0  0  0  0  0
  1  2  1  0  0  0
  1 18  1  0  0  0
  1 19  1  0  0  0
  1 20  1  0  0  0
  2  3  1  0  0  0
  2 21  1  0  0  0
  2 22  1  0  0  0
  3  4  1  0  0  0
  3 23  1  0  0  0
  3 24  1  0  0  0
  4  5  1  0  0  0
  4 25  1  0  0  0
  4 26  1  0  0  0
  5  6  1  0  0  0
  5 27  1  0  0  0
  5 28  1  0  0  0
  6  7  1  0  0  0
  6 29  1  0  0  0
  6 30  1  0  0  0
  7  8  1  0  0  0
  7 31  1  0  0  0
  7 32  1  0  0  0
  8  9  1  0  0  0
  8 33  1  0  0  0
  8 34  1  0  0  0
  9 10  1  0  0  0
  9 35  1  0  0  0
  9 36  1  0  0  0
 10 11  1  0  0  0
 10 37  1  0  0  0
 10 38  1  0  0  0
 11 12  1  0  0  0
 11 39  1  0  0  0
 11 40  1  0  0  0
 12 13  1  0  0  0
 12 41  1  0  0  0
 12 42  1  0  0  0
 13 14  1  0  0  0
 13 43  1  0  0  0
 13 44  1  0  0  0
 14 15  1  0  0  0
 14 45  1  0  0  0
 14 46  1  0  0  0
 15 16  1  0  0  0
 15 47  1  0  0  0
 15 48  1  0  0  0
 16 17  1  0  0  0
 16 49  1  0  0  0
 16 50  1  0  0  0
 17 51  1  0  0  0
 17 52  1  0  0  0
 17 53  1  0  0  0
M  END
>  <i_m_Spin_multiplicity> (1)
1

>  <s_j_Task> (1)
Single Point

>  <s_j_QM_Method> (1)
DFT(b3lyp-d3)

>  <s_j_QM_Basis> (1)
cc-pvtz(-f)

>  <i_j_Number_of_canonical_orbitals> (1)
711

>  <i_j_Geometry_convergence_category> (1)
0

>  <r_j_Gas_Phase_Energy> (1)
-669.804478385117

>  <r_j_Final_Energy> (1)
-669.804478385117

>  <r_j_HOMO> (1)
-0.293972869252458

>  <r_j_LUMO> (1)
0.0154364114229398

>  <r_j_Polarizability> (1)
212.535401585288

>  <r_j_QM_Dipole_(debye)> (1)
0.0670403481778454

>  <r_j_QM_Dipole_X_(debye)> (1)
0.0439535784379168

>  <r_j_QM_Dipole_Y_(debye)> (1)
0.0505854988895722

>  <r_j_QM_Dipole_Z_(debye)> (1)
0.00189697875626586

>  <r_j_Lowest_Frequency_(cm-1)> (1)
26.8065649287082

>  <r_j_Highest_Frequency_(cm-1)> (1)
3045.85263258105

>  <r_j_2nd_Lowest_Frequency_(cm-1)> (1)
50.1600745255838

>  <i_j_Num_Negative_Frequencies> (1)
0

>  <r_j_Zero_Point_Energy_(kcal/mol)> (1)
315.083945623118

>  <r_j_Entropy_(cal/mol/K)_298.15K_1.00E+00atm> (1)
148.646550700442

>  <r_j_Enthalpy_(kcal/mol)_298.15K_1.00E+00atm> (1)
13.8562590550703

>  <r_j_Free_Energy_(kcal/mol)_298.15K_1.00E+00atm> (1)
-30.4627100362663

>  <r_j_Internal_Energy_(kcal/mol)_298.15K_1.00E+00atm> (1)
13.2637734662431

>  <r_j_Heat_Capacity_(cal/mol/K)_298.15K_1.00E+00atm> (1)
80.7364500971095

>  <r_j_ln(Q)_298.15K_1.00E+00atm> (1)
51.415107153175

>  <r_j_Total_Internal_Energy_(au)_298.15K_1.00E+00atm> (1)
-669.281222984542

>  <r_j_Total_Enthalpy_(au)_298.15K_1.00E+00atm> (1)
-669.28027879865

>  <r_j_Total_Free_Energy_(au)_298.15K_1.00E+00atm> (1)
-669.350905571966

>  <r_lp_tautomer_probability> (1)
1

>  <r_epik_Ionization_Penalty> (1)
  0.0000

>  <r_epik_Ionization_Penalty_Charging> (1)
  0.0000

>  <r_epik_Ionization_Penalty_Neutral> (1)
  0.0000

>  <r_epik_State_Penalty> (1)
  0.0000

>  <r_epik_Charging_Adjusted_Penalty> (1)
0

>  <i_epik_Tot_Q> (1)
0

>  <i_epik_Tot_abs_Q> (1)
0

>  <s_lp_Force_Field> (1)
S-OPLS

>  <r_lp_Energy> (1)
8.602944

>  <b_lp_Chiralities_Consistent> (1)
1

$$$$
