12395_1-Hexadecene
                    3D
 Schrodinger Suite 2021-3.
 48 47  0  0  1  0            999 V2000
   -6.2228    4.6638    0.1320 C   0  0  0  0  0  0
   -4.6970    4.5331    0.1399 C   0  0  0  0  0  0
   -4.2150    3.0832    0.0092 C   0  0  0  0  0  0
   -2.6884    2.9505    0.0191 C   0  0  0  0  0  0
   -2.1913    1.5050   -0.0984 C   0  0  0  0  0  0
   -0.6629    1.3948   -0.0764 C   0  0  0  0  0  0
   -0.1397   -0.0433   -0.1666 C   0  0  0  0  0  0
    1.3903   -0.1229   -0.1216 C   0  0  0  0  0  0
    1.9448   -1.5511   -0.1716 C   0  0  0  0  0  0
    3.4751   -1.5961   -0.0951 C   0  0  0  0  0  0
    4.0601   -3.0129   -0.0978 C   0  0  0  0  0  0
    5.5892   -3.0245    0.0121 C   0  0  0  0  0  0
    6.1967   -4.4305    0.0553 C   0  0  0  0  0  0
    7.7307   -4.4106    0.1948 C   0  0  0  0  0  0
    8.3348   -5.7867    0.2232 C   0  0  0  0  0  0
    9.0288   -6.3035    1.2373 C   0  0  0  0  0  0
   -6.5384    5.7080    0.2278 H   0  0  0  0  0  0
   -6.6707    4.1027    0.9603 H   0  0  0  0  0  0
   -6.6474    4.2710   -0.7991 H   0  0  0  0  0  0
   -4.2721    5.1297   -0.6790 H   0  0  0  0  0  0
   -4.2957    4.9638    1.0675 H   0  0  0  0  0  0
   -4.6388    2.4847    0.8286 H   0  0  0  0  0  0
   -4.6140    2.6495   -0.9191 H   0  0  0  0  0  0
   -2.2672    3.5466   -0.8033 H   0  0  0  0  0  0
   -2.2932    3.3935    0.9447 H   0  0  0  0  0  0
   -2.6118    0.9074    0.7231 H   0  0  0  0  0  0
   -2.5778    1.0589   -1.0259 H   0  0  0  0  0  0
   -0.2449    1.9853   -0.9044 H   0  0  0  0  0  0
   -0.2820    1.8583    0.8451 H   0  0  0  0  0  0
   -0.5600   -0.6361    0.6586 H   0  0  0  0  0  0
   -0.5054   -0.5104   -1.0922 H   0  0  0  0  0  0
    1.8083    0.4581   -0.9563 H   0  0  0  0  0  0
    1.7481    0.3683    0.7947 H   0  0  0  0  0  0
    1.5214   -2.1351    0.6582 H   0  0  0  0  0  0
    1.6073   -2.0456   -1.0936 H   0  0  0  0  0  0
    3.8974   -1.0270   -0.9358 H   0  0  0  0  0  0
    3.8038   -1.0748    0.8155 H   0  0  0  0  0  0
    3.6310   -3.5852    0.7370 H   0  0  0  0  0  0
    3.7531   -3.5367   -1.0142 H   0  0  0  0  0  0
    6.0189   -2.4681   -0.8334 H   0  0  0  0  0  0
    5.8885   -2.4758    0.9167 H   0  0  0  0  0  0
    5.7686   -4.9936    0.8951 H   0  0  0  0  0  0
    5.9190   -4.9808   -0.8547 H   0  0  0  0  0  0
    8.1501   -3.8441   -0.6502 H   0  0  0  0  0  0
    8.0087   -3.8636    1.1049 H   0  0  0  0  0  0
    8.1625   -6.3962   -0.6656 H   0  0  0  0  0  0
    9.2211   -5.7336    2.1437 H   0  0  0  0  0  0
    9.4319   -7.3114    1.2018 H   0  0  0  0  0  0
  1  2  1  0  0  0
  1 17  1  0  0  0
  1 18  1  0  0  0
  1 19  1  0  0  0
  2  3  1  0  0  0
  2 20  1  0  0  0
  2 21  1  0  0  0
  3  4  1  0  0  0
  3 22  1  0  0  0
  3 23  1  0  0  0
  4  5  1  0  0  0
  4 24  1  0  0  0
  4 25  1  0  0  0
  5  6  1  0  0  0
  5 26  1  0  0  0
  5 27  1  0  0  0
  6  7  1  0  0  0
  6 28  1  0  0  0
  6 29  1  0  0  0
  7  8  1  0  0  0
  7 30  1  0  0  0
  7 31  1  0  0  0
  8  9  1  0  0  0
  8 32  1  0  0  0
  8 33  1  0  0  0
  9 10  1  0  0  0
  9 34  1  0  0  0
  9 35  1  0  0  0
 10 11  1  0  0  0
 10 36  1  0  0  0
 10 37  1  0  0  0
 11 12  1  0  0  0
 11 38  1  0  0  0
 11 39  1  0  0  0
 12 13  1  0  0  0
 12 40  1  0  0  0
 12 41  1  0  0  0
 13 14  1  0  0  0
 13 42  1  0  0  0
 13 43  1  0  0  0
 14 15  1  0  0  0
 14 44  1  0  0  0
 14 45  1  0  0  0
 15 16  2  0  0  0
 15 46  1  0  0  0
 16 47  1  0  0  0
 16 48  1  0  0  0
M  END
>  <i_m_Spin_multiplicity> (1)
1

>  <s_j_Task> (1)
Single Point

>  <s_j_QM_Method> (1)
DFT(b3lyp-d3)

>  <s_j_QM_Basis> (1)
cc-pvtz(-f)

>  <i_j_Number_of_canonical_orbitals> (1)
651

>  <i_j_Geometry_convergence_category> (1)
3

>  <r_j_Gas_Phase_Energy> (1)
-629.23849574417

>  <r_j_Final_Energy> (1)
-629.23849574417

>  <r_j_HOMO> (1)
-0.286474685920061

>  <r_j_LUMO> (1)
-0.0253564826137969

>  <r_j_Polarizability> (1)
200.707588322327

>  <r_j_QM_Dipole_(debye)> (1)
0.470187763471753

>  <r_j_QM_Dipole_X_(debye)> (1)
-0.287917705991702

>  <r_j_QM_Dipole_Y_(debye)> (1)
0.318187985361321

>  <r_j_QM_Dipole_Z_(debye)> (1)
-0.192188276090787

>  <r_j_Lowest_Frequency_(cm-1)> (1)
30.4498713015089

>  <r_j_Highest_Frequency_(cm-1)> (1)
3166.77960128116

>  <r_j_2nd_Lowest_Frequency_(cm-1)> (1)
51.5907397300855

>  <i_j_Num_Negative_Frequencies> (1)
0

>  <r_j_Zero_Point_Energy_(kcal/mol)> (1)
282.200083145214

>  <r_j_Entropy_(cal/mol/K)_298.15K_1.00E+00atm> (1)
141.702757272122

>  <r_j_Enthalpy_(kcal/mol)_298.15K_1.00E+00atm> (1)
12.9538928911423

>  <r_j_Free_Energy_(kcal/mol)_298.15K_1.00E+00atm> (1)
-29.2947841895407

>  <r_j_Internal_Energy_(kcal/mol)_298.15K_1.00E+00atm> (1)
12.361407302315

>  <r_j_Heat_Capacity_(cal/mol/K)_298.15K_1.00E+00atm> (1)
74.3634268289465

>  <r_j_ln(Q)_298.15K_1.00E+00atm> (1)
49.4438763439374

>  <r_j_Total_Internal_Energy_(au)_298.15K_1.00E+00atm> (1)
-628.769082126479

>  <r_j_Total_Enthalpy_(au)_298.15K_1.00E+00atm> (1)
-628.768137940587

>  <r_j_Total_Free_Energy_(au)_298.15K_1.00E+00atm> (1)
-628.835465493557

>  <r_lp_tautomer_probability> (1)
1

>  <r_epik_Ionization_Penalty> (1)
  0.0000

>  <r_epik_Ionization_Penalty_Charging> (1)
  0.0000

>  <r_epik_Ionization_Penalty_Neutral> (1)
  0.0000

>  <r_epik_State_Penalty> (1)
  0.0000

>  <r_epik_Charging_Adjusted_Penalty> (1)
0

>  <i_epik_Tot_Q> (1)
0

>  <i_epik_Tot_abs_Q> (1)
0

>  <s_lp_Force_Field> (1)
S-OPLS

>  <r_lp_Energy> (1)
4.530119

>  <b_lp_Chiralities_Consistent> (1)
1

$$$$
