12403_N-heneicosane
                    3D
 Schrodinger Suite 2021-3.
 65 64  0  0  1  0            999 V2000
   -3.4488    9.5321   -4.0530 C   0  0  0  0  0  0
   -2.7746    8.1584   -3.9915 C   0  0  0  0  0  0
   -3.2415    7.3111   -2.8019 C   0  0  0  0  0  0
   -2.5663    5.9369   -2.7340 C   0  0  0  0  0  0
   -3.0220    5.0849   -1.5440 C   0  0  0  0  0  0
   -2.3307    3.7180   -1.4812 C   0  0  0  0  0  0
   -2.7660    2.8710   -0.2784 C   0  0  0  0  0  0
   -2.1417    1.4674   -0.2311 C   0  0  0  0  0  0
   -0.6143    1.4600   -0.0808 C   0  0  0  0  0  0
   -0.0351    0.0500    0.0966 C   0  0  0  0  0  0
    1.5004   -0.0044    0.1254 C   0  0  0  0  0  0
    2.1397    0.7549    1.2954 C   0  0  0  0  0  0
    3.6643    0.6054    1.3547 C   0  0  0  0  0  0
    4.3043    1.3872    2.5075 C   0  0  0  0  0  0
    5.8264    1.2267    2.5869 C   0  0  0  0  0  0
    6.4612    2.0167    3.7370 C   0  0  0  0  0  0
    7.9796    1.8324    3.8396 C   0  0  0  0  0  0
    8.6057    2.6239    4.9953 C   0  0  0  0  0  0
   10.1329    2.4955    5.1027 C   0  0  0  0  0  0
   10.6293    1.0844    5.4472 C   0  0  0  0  0  0
   12.1484    1.0192    5.6322 C   0  0  0  0  0  0
   -3.0976   10.1156   -4.9104 H   0  0  0  0  0  0
   -3.2424   10.1133   -3.1468 H   0  0  0  0  0  0
   -4.5371    9.4336   -4.1397 H   0  0  0  0  0  0
   -2.9696    7.6103   -4.9235 H   0  0  0  0  0  0
   -1.6847    8.2855   -3.9379 H   0  0  0  0  0  0
   -3.0482    7.8588   -1.8682 H   0  0  0  0  0  0
   -4.3320    7.1803   -2.8545 H   0  0  0  0  0  0
   -2.7611    5.3900   -3.6677 H   0  0  0  0  0  0
   -1.4760    6.0716   -2.6858 H   0  0  0  0  0  0
   -2.8295    5.6323   -0.6100 H   0  0  0  0  0  0
   -4.1112    4.9428   -1.5916 H   0  0  0  0  0  0
   -2.5353    3.1627   -2.4083 H   0  0  0  0  0  0
   -1.2442    3.8723   -1.4547 H   0  0  0  0  0  0
   -2.5193    3.4080    0.6490 H   0  0  0  0  0  0
   -3.8602    2.7747   -0.2901 H   0  0  0  0  0  0
   -2.5821    0.9113    0.6077 H   0  0  0  0  0  0
   -2.4191    0.9141   -1.1399 H   0  0  0  0  0  0
   -0.1490    1.9257   -0.9597 H   0  0  0  0  0  0
   -0.3401    2.0878    0.7775 H   0  0  0  0  0  0
   -0.4323   -0.3904    1.0225 H   0  0  0  0  0  0
   -0.3978   -0.5874   -0.7213 H   0  0  0  0  0  0
    1.8188   -1.0549    0.1681 H   0  0  0  0  0  0
    1.8948    0.3932   -0.8209 H   0  0  0  0  0  0
    1.8901    1.8218    1.2286 H   0  0  0  0  0  0
    1.7022    0.3998    2.2399 H   0  0  0  0  0  0
    3.9234   -0.4591    1.4476 H   0  0  0  0  0  0
    4.1003    0.9400    0.4024 H   0  0  0  0  0  0
    4.0559    2.4534    2.4046 H   0  0  0  0  0  0
    3.8560    1.0640    3.4580 H   0  0  0  0  0  0
    6.0735    0.1611    2.6980 H   0  0  0  0  0  0
    6.2772    1.5433    1.6354 H   0  0  0  0  0  0
    6.2300    3.0848    3.6161 H   0  0  0  0  0  0
    5.9954    1.7132    4.6857 H   0  0  0  0  0  0
    8.1998    0.7631    3.9548 H   0  0  0  0  0  0
    8.4503    2.1390    2.8941 H   0  0  0  0  0  0
    8.3440    3.6844    4.8787 H   0  0  0  0  0  0
    8.1487    2.3023    5.9424 H   0  0  0  0  0  0
   10.5934    2.8199    4.1582 H   0  0  0  0  0  0
   10.4956    3.1926    5.8705 H   0  0  0  0  0  0
   10.1307    0.7429    6.3651 H   0  0  0  0  0  0
   10.3310    0.3814    4.6598 H   0  0  0  0  0  0
   12.4818    0.0049    5.8752 H   0  0  0  0  0  0
   12.4765    1.6817    6.4416 H   0  0  0  0  0  0
   12.6698    1.3318    4.7200 H   0  0  0  0  0  0
  1  2  1  0  0  0
  1 22  1  0  0  0
  1 23  1  0  0  0
  1 24  1  0  0  0
  2  3  1  0  0  0
  2 25  1  0  0  0
  2 26  1  0  0  0
  3  4  1  0  0  0
  3 27  1  0  0  0
  3 28  1  0  0  0
  4  5  1  0  0  0
  4 29  1  0  0  0
  4 30  1  0  0  0
  5  6  1  0  0  0
  5 31  1  0  0  0
  5 32  1  0  0  0
  6  7  1  0  0  0
  6 33  1  0  0  0
  6 34  1  0  0  0
  7  8  1  0  0  0
  7 35  1  0  0  0
  7 36  1  0  0  0
  8  9  1  0  0  0
  8 37  1  0  0  0
  8 38  1  0  0  0
  9 10  1  0  0  0
  9 39  1  0  0  0
  9 40  1  0  0  0
 10 11  1  0  0  0
 10 41  1  0  0  0
 10 42  1  0  0  0
 11 12  1  0  0  0
 11 43  1  0  0  0
 11 44  1  0  0  0
 12 13  1  0  0  0
 12 45  1  0  0  0
 12 46  1  0  0  0
 13 14  1  0  0  0
 13 47  1  0  0  0
 13 48  1  0  0  0
 14 15  1  0  0  0
 14 49  1  0  0  0
 14 50  1  0  0  0
 15 16  1  0  0  0
 15 51  1  0  0  0
 15 52  1  0  0  0
 16 17  1  0  0  0
 16 53  1  0  0  0
 16 54  1  0  0  0
 17 18  1  0  0  0
 17 55  1  0  0  0
 17 56  1  0  0  0
 18 19  1  0  0  0
 18 57  1  0  0  0
 18 58  1  0  0  0
 19 20  1  0  0  0
 19 59  1  0  0  0
 19 60  1  0  0  0
 20 21  1  0  0  0
 20 61  1  0  0  0
 20 62  1  0  0  0
 21 63  1  0  0  0
 21 64  1  0  0  0
 21 65  1  0  0  0
M  END
>  <i_m_Spin_multiplicity> (1)
1

>  <s_j_Task> (1)
Single Point

>  <s_j_QM_Method> (1)
DFT(b3lyp-d3)

>  <s_j_QM_Basis> (1)
cc-pvtz(-f)

>  <i_j_Number_of_canonical_orbitals> (1)
873

>  <i_j_Geometry_convergence_category> (1)
0

>  <r_j_Gas_Phase_Energy> (1)
-827.121323552864

>  <r_j_Final_Energy> (1)
-827.121323552864

>  <r_j_HOMO> (1)
-0.255222782348982

>  <r_j_LUMO> (1)
0.0163663933003086

>  <r_j_Polarizability> (1)
261.968593447552

>  <r_j_QM_Dipole_(debye)> (1)
0.0755131304483831

>  <r_j_QM_Dipole_X_(debye)> (1)
-0.0306032163581608

>  <r_j_QM_Dipole_Y_(debye)> (1)
-0.0675016834560406

>  <r_j_QM_Dipole_Z_(debye)> (1)
-0.0144637045479578

>  <r_j_Lowest_Frequency_(cm-1)> (1)
21.3214170173986

>  <r_j_Highest_Frequency_(cm-1)> (1)
3046.02706511651

>  <r_j_2nd_Lowest_Frequency_(cm-1)> (1)
35.1621330524179

>  <i_j_Num_Negative_Frequencies> (1)
0

>  <r_j_Zero_Point_Energy_(kcal/mol)> (1)
386.670286263664

>  <r_j_Entropy_(cal/mol/K)_298.15K_1.00E+00atm> (1)
170.226743957256

>  <r_j_Enthalpy_(kcal/mol)_298.15K_1.00E+00atm> (1)
16.8895623926703

>  <r_j_Free_Energy_(kcal/mol)_298.15K_1.00E+00atm> (1)
-33.8635413181857

>  <r_j_Internal_Energy_(kcal/mol)_298.15K_1.00E+00atm> (1)
16.297076803843

>  <r_j_Heat_Capacity_(cal/mol/K)_298.15K_1.00E+00atm> (1)
99.6773988928466

>  <r_j_ln(Q)_298.15K_1.00E+00atm> (1)
57.1550463956649

>  <r_j_Total_Internal_Energy_(au)_298.15K_1.00E+00atm> (1)
-826.4791541796

>  <r_j_Total_Enthalpy_(au)_298.15K_1.00E+00atm> (1)
-826.478209993707

>  <r_j_Total_Free_Energy_(au)_298.15K_1.00E+00atm> (1)
-826.559090213269

>  <r_lp_tautomer_probability> (1)
1

>  <r_epik_Ionization_Penalty> (1)
  0.0000

>  <r_epik_Ionization_Penalty_Charging> (1)
  0.0000

>  <r_epik_Ionization_Penalty_Neutral> (1)
  0.0000

>  <r_epik_State_Penalty> (1)
  0.0000

>  <r_epik_Charging_Adjusted_Penalty> (1)
0

>  <i_epik_Tot_Q> (1)
0

>  <i_epik_Tot_abs_Q> (1)
0

>  <s_lp_Force_Field> (1)
S-OPLS

>  <r_lp_Energy> (1)
11.076716

>  <b_lp_Chiralities_Consistent> (1)
1

$$$$
