12405_N-docosane
                    3D
 Schrodinger Suite 2021-3.
 68 67  0  0  1  0            999 V2000
  -10.5780    5.3218    1.8038 C   0  0  0  0  0  0
   -9.0647    5.2046    1.5980 C   0  0  0  0  0  0
   -8.6169    5.6635    0.2033 C   0  0  0  0  0  0
   -7.0958    5.6456   -0.0137 C   0  0  0  0  0  0
   -6.4655    4.2471    0.0156 C   0  0  0  0  0  0
   -4.9512    4.2620   -0.2225 C   0  0  0  0  0  0
   -4.3166    2.8673   -0.1828 C   0  0  0  0  0  0
   -2.7929    2.8839   -0.3481 C   0  0  0  0  0  0
   -2.1601    1.4889   -0.2919 C   0  0  0  0  0  0
   -0.6299    1.5083   -0.3789 C   0  0  0  0  0  0
    0.0016    0.1137   -0.3015 C   0  0  0  0  0  0
    1.5344    0.1367   -0.3100 C   0  0  0  0  0  0
    2.1567   -1.2616   -0.2046 C   0  0  0  0  0  0
    3.6930   -1.2817   -0.2204 C   0  0  0  0  0  0
    4.3464   -0.5750    0.9753 C   0  0  0  0  0  0
    5.8674   -0.7585    1.0300 C   0  0  0  0  0  0
    6.5174   -0.0314    2.2147 C   0  0  0  0  0  0
    8.0422   -0.1972    2.3065 C   0  0  0  0  0  0
    8.5029   -1.6314    2.5987 C   0  0  0  0  0  0
   10.0194   -1.7588    2.7816 C   0  0  0  0  0  0
   10.4756   -3.1940    3.0704 C   0  0  0  0  0  0
   11.9904   -3.3177    3.2580 C   0  0  0  0  0  0
  -10.8757    4.9885    2.8036 H   0  0  0  0  0  0
  -11.1229    4.7124    1.0735 H   0  0  0  0  0  0
  -10.9140    6.3582    1.6833 H   0  0  0  0  0  0
   -8.5417    5.8027    2.3573 H   0  0  0  0  0  0
   -8.7573    4.1651    1.7654 H   0  0  0  0  0  0
   -9.1015    5.0342   -0.5572 H   0  0  0  0  0  0
   -8.9887    6.6832    0.0332 H   0  0  0  0  0  0
   -6.8665    6.1157   -0.9796 H   0  0  0  0  0  0
   -6.6152    6.2741    0.7501 H   0  0  0  0  0  0
   -6.6656    3.7668    0.9823 H   0  0  0  0  0  0
   -6.9501    3.6154   -0.7430 H   0  0  0  0  0  0
   -4.7359    4.7345   -1.1916 H   0  0  0  0  0  0
   -4.4736    4.8987    0.5363 H   0  0  0  0  0  0
   -4.5694    2.3825    0.7712 H   0  0  0  0  0  0
   -4.7639    2.2401   -0.9673 H   0  0  0  0  0  0
   -2.5319    3.3661   -1.3010 H   0  0  0  0  0  0
   -2.3523    3.5128    0.4389 H   0  0  0  0  0  0
   -2.4606    0.9936    0.6427 H   0  0  0  0  0  0
   -2.5662    0.8701   -1.1049 H   0  0  0  0  0  0
   -0.3211    1.9988   -1.3131 H   0  0  0  0  0  0
   -0.2314    2.1311    0.4349 H   0  0  0  0  0  0
   -0.3446   -0.3887    0.6133 H   0  0  0  0  0  0
   -0.3619   -0.4998   -1.1383 H   0  0  0  0  0  0
    1.8905    0.6253   -1.2287 H   0  0  0  0  0  0
    1.8823    0.7635    0.5213 H   0  0  0  0  0  0
    1.8015   -1.7438    0.7178 H   0  0  0  0  0  0
    1.7820   -1.8793   -1.0319 H   0  0  0  0  0  0
    4.0318   -2.3265   -0.2410 H   0  0  0  0  0  0
    4.0564   -0.8273   -1.1533 H   0  0  0  0  0  0
    4.1149    0.4978    0.9493 H   0  0  0  0  0  0
    3.9037   -0.9581    1.9065 H   0  0  0  0  0  0
    6.0931   -1.8317    1.0786 H   0  0  0  0  0  0
    6.3154   -0.3961    0.0933 H   0  0  0  0  0  0
    6.2764    1.0382    2.1470 H   0  0  0  0  0  0
    6.0602   -0.3857    3.1500 H   0  0  0  0  0  0
    8.5039    0.1494    1.3708 H   0  0  0  0  0  0
    8.4248    0.4639    3.0959 H   0  0  0  0  0  0
    7.9965   -1.9942    3.5051 H   0  0  0  0  0  0
    8.1858   -2.2994    1.7873 H   0  0  0  0  0  0
   10.5283   -1.3905    1.8791 H   0  0  0  0  0  0
   10.3454   -1.1021    3.6011 H   0  0  0  0  0  0
    9.9621   -3.5612    3.9696 H   0  0  0  0  0  0
   10.1516   -3.8476    2.2490 H   0  0  0  0  0  0
   12.2882   -4.3514    3.4623 H   0  0  0  0  0  0
   12.3358   -2.6994    4.0946 H   0  0  0  0  0  0
   12.5269   -2.9869    2.3611 H   0  0  0  0  0  0
  1  2  1  0  0  0
  1 23  1  0  0  0
  1 24  1  0  0  0
  1 25  1  0  0  0
  2  3  1  0  0  0
  2 26  1  0  0  0
  2 27  1  0  0  0
  3  4  1  0  0  0
  3 28  1  0  0  0
  3 29  1  0  0  0
  4  5  1  0  0  0
  4 30  1  0  0  0
  4 31  1  0  0  0
  5  6  1  0  0  0
  5 32  1  0  0  0
  5 33  1  0  0  0
  6  7  1  0  0  0
  6 34  1  0  0  0
  6 35  1  0  0  0
  7  8  1  0  0  0
  7 36  1  0  0  0
  7 37  1  0  0  0
  8  9  1  0  0  0
  8 38  1  0  0  0
  8 39  1  0  0  0
  9 10  1  0  0  0
  9 40  1  0  0  0
  9 41  1  0  0  0
 10 11  1  0  0  0
 10 42  1  0  0  0
 10 43  1  0  0  0
 11 12  1  0  0  0
 11 44  1  0  0  0
 11 45  1  0  0  0
 12 13  1  0  0  0
 12 46  1  0  0  0
 12 47  1  0  0  0
 13 14  1  0  0  0
 13 48  1  0  0  0
 13 49  1  0  0  0
 14 15  1  0  0  0
 14 50  1  0  0  0
 14 51  1  0  0  0
 15 16  1  0  0  0
 15 52  1  0  0  0
 15 53  1  0  0  0
 16 17  1  0  0  0
 16 54  1  0  0  0
 16 55  1  0  0  0
 17 18  1  0  0  0
 17 56  1  0  0  0
 17 57  1  0  0  0
 18 19  1  0  0  0
 18 58  1  0  0  0
 18 59  1  0  0  0
 19 20  1  0  0  0
 19 60  1  0  0  0
 19 61  1  0  0  0
 20 21  1  0  0  0
 20 62  1  0  0  0
 20 63  1  0  0  0
 21 22  1  0  0  0
 21 64  1  0  0  0
 21 65  1  0  0  0
 22 66  1  0  0  0
 22 67  1  0  0  0
 22 68  1  0  0  0
M  END
>  <i_m_Spin_multiplicity> (1)
1

>  <s_j_Task> (1)
Single Point

>  <s_j_QM_Method> (1)
DFT(b3lyp-d3)

>  <s_j_QM_Basis> (1)
cc-pvtz(-f)

>  <i_j_Number_of_canonical_orbitals> (1)
913

>  <i_j_Geometry_convergence_category> (1)
3

>  <r_j_Gas_Phase_Energy> (1)
-866.450511748611

>  <r_j_Final_Energy> (1)
-866.450511748611

>  <r_j_HOMO> (1)
-0.275881717070281

>  <r_j_LUMO> (1)
0.00539880213877915

>  <r_j_Polarizability> (1)
275.513069920092

>  <r_j_QM_Dipole_(debye)> (1)
0.0235147897763655

>  <r_j_QM_Dipole_X_(debye)> (1)
0.00821011725924291

>  <r_j_QM_Dipole_Y_(debye)> (1)
-0.0185242040462654

>  <r_j_QM_Dipole_Z_(debye)> (1)
-0.0119328612356161

>  <r_j_Lowest_Frequency_(cm-1)> (1)
22.3071661964023

>  <r_j_Highest_Frequency_(cm-1)> (1)
3046.06028319095

>  <r_j_2nd_Lowest_Frequency_(cm-1)> (1)
34.5009664349422

>  <i_j_Num_Negative_Frequencies> (1)
0

>  <r_j_Zero_Point_Energy_(kcal/mol)> (1)
404.520319784491

>  <r_j_Entropy_(cal/mol/K)_298.15K_1.00E+00atm> (1)
175.289728787439

>  <r_j_Enthalpy_(kcal/mol)_298.15K_1.00E+00atm> (1)
17.6786774761839

>  <r_j_Free_Energy_(kcal/mol)_298.15K_1.00E+00atm> (1)
-34.5839551617911

>  <r_j_Internal_Energy_(kcal/mol)_298.15K_1.00E+00atm> (1)
17.0861918873567

>  <r_j_Heat_Capacity_(cal/mol/K)_298.15K_1.00E+00atm> (1)
104.444813952998

>  <r_j_ln(Q)_298.15K_1.00E+00atm> (1)
58.3709643136539

>  <r_j_Total_Internal_Energy_(au)_298.15K_1.00E+00atm> (1)
-865.778639001142

>  <r_j_Total_Enthalpy_(au)_298.15K_1.00E+00atm> (1)
-865.777694815249

>  <r_j_Total_Free_Energy_(au)_298.15K_1.00E+00atm> (1)
-865.860980622295

>  <r_lp_tautomer_probability> (1)
1

>  <r_epik_Ionization_Penalty> (1)
  0.0000

>  <r_epik_Ionization_Penalty_Charging> (1)
  0.0000

>  <r_epik_Ionization_Penalty_Neutral> (1)
  0.0000

>  <r_epik_State_Penalty> (1)
  0.0000

>  <r_epik_Charging_Adjusted_Penalty> (1)
0

>  <i_epik_Tot_Q> (1)
0

>  <i_epik_Tot_abs_Q> (1)
0

>  <s_lp_Force_Field> (1)
S-OPLS

>  <r_lp_Energy> (1)
11.618241

>  <b_lp_Chiralities_Consistent> (1)
1

$$$$
