12408_n-octacosane
                    3D
 Schrodinger Suite 2021-3.
 86 85  0  0  1  0            999 V2000
  -10.0682   -2.4917   -1.0713 C   0  0  0  0  0  0
   -9.1679   -1.2875   -0.7798 C   0  0  0  0  0  0
   -9.4200   -0.1025   -1.7203 C   0  0  0  0  0  0
   -8.5195    1.1023   -1.4249 C   0  0  0  0  0  0
   -8.7585    2.2940   -2.3627 C   0  0  0  0  0  0
   -7.9297    3.5414   -2.0153 C   0  0  0  0  0  0
   -6.4163    3.3693   -2.2039 C   0  0  0  0  0  0
   -5.6145    4.6051   -1.7741 C   0  0  0  0  0  0
   -4.1008    4.5002   -2.0211 C   0  0  0  0  0  0
   -3.4324    3.3057   -1.3263 C   0  0  0  0  0  0
   -1.9003    3.3380   -1.3838 C   0  0  0  0  0  0
   -1.2583    2.0609   -0.8291 C   0  0  0  0  0  0
    0.2711    2.1176   -0.7407 C   0  0  0  0  0  0
    0.8934    0.7821   -0.3150 C   0  0  0  0  0  0
    2.4053    0.8630   -0.0635 C   0  0  0  0  0  0
    3.0852   -0.5000    0.1418 C   0  0  0  0  0  0
    2.5186   -1.3296    1.3021 C   0  0  0  0  0  0
    3.2956   -2.6287    1.5472 C   0  0  0  0  0  0
    2.6470   -3.5382    2.5977 C   0  0  0  0  0  0
    3.4528   -4.8164    2.8691 C   0  0  0  0  0  0
    2.7257   -5.8539    3.7380 C   0  0  0  0  0  0
    2.3959   -5.3883    5.1626 C   0  0  0  0  0  0
    1.7224   -6.4823    5.9995 C   0  0  0  0  0  0
    1.3599   -6.0430    7.4227 C   0  0  0  0  0  0
    0.6758   -7.1490    8.2349 C   0  0  0  0  0  0
    0.3002   -6.7294    9.6605 C   0  0  0  0  0  0
   -0.3884   -7.8442   10.4576 C   0  0  0  0  0  0
   -0.7626   -7.4241   11.8820 C   0  0  0  0  0  0
   -9.8659   -3.3211   -0.3854 H   0  0  0  0  0  0
   -9.9169   -2.8591   -2.0929 H   0  0  0  0  0  0
  -11.1269   -2.2261   -0.9704 H   0  0  0  0  0  0
   -9.3157   -0.9610    0.2588 H   0  0  0  0  0  0
   -8.1142   -1.5895   -0.8548 H   0  0  0  0  0  0
   -9.2690   -0.4257   -2.7606 H   0  0  0  0  0  0
  -10.4743    0.2013   -1.6483 H   0  0  0  0  0  0
   -8.6778    1.4261   -0.3857 H   0  0  0  0  0  0
   -7.4711    0.7825   -1.4851 H   0  0  0  0  0  0
   -8.5471    1.9907   -3.3982 H   0  0  0  0  0  0
   -9.8249    2.5558   -2.3354 H   0  0  0  0  0  0
   -8.2704    4.3849   -2.6309 H   0  0  0  0  0  0
   -8.1324    3.8265   -0.9725 H   0  0  0  0  0  0
   -6.0735    2.5019   -1.6289 H   0  0  0  0  0  0
   -6.2043    3.1401   -3.2587 H   0  0  0  0  0  0
   -6.0030    5.4884   -2.2993 H   0  0  0  0  0  0
   -5.7912    4.7865   -0.7040 H   0  0  0  0  0  0
   -3.9090    4.4383   -3.1018 H   0  0  0  0  0  0
   -3.6217    5.4285   -1.6807 H   0  0  0  0  0  0
   -3.7512    3.2700   -0.2741 H   0  0  0  0  0  0
   -3.7858    2.3705   -1.7801 H   0  0  0  0  0  0
   -1.5734    3.4850   -2.4232 H   0  0  0  0  0  0
   -1.5334    4.2106   -0.8247 H   0  0  0  0  0  0
   -1.6658    1.8532    0.1709 H   0  0  0  0  0  0
   -1.5561    1.2090   -1.4574 H   0  0  0  0  0  0
    0.6876    2.4183   -1.7127 H   0  0  0  0  0  0
    0.5638    2.9036   -0.0298 H   0  0  0  0  0  0
    0.3883    0.4265    0.5927 H   0  0  0  0  0  0
    0.6909    0.0274   -1.0890 H   0  0  0  0  0  0
    2.8838    1.3711   -0.9121 H   0  0  0  0  0  0
    2.5887    1.4997    0.8138 H   0  0  0  0  0  0
    3.0019   -1.0860   -0.7849 H   0  0  0  0  0  0
    4.1601   -0.3422    0.3048 H   0  0  0  0  0  0
    2.5167   -0.7248    2.2208 H   0  0  0  0  0  0
    1.4683   -1.5768    1.0997 H   0  0  0  0  0  0
    3.3832   -3.1821    0.6009 H   0  0  0  0  0  0
    4.3241   -2.3881    1.8519 H   0  0  0  0  0  0
    2.5124   -2.9750    3.5306 H   0  0  0  0  0  0
    1.6366   -3.8122    2.2603 H   0  0  0  0  0  0
    3.7083   -5.2834    1.9080 H   0  0  0  0  0  0
    4.4097   -4.5489    3.3397 H   0  0  0  0  0  0
    1.7943   -6.1521    3.2350 H   0  0  0  0  0  0
    3.3409   -6.7623    3.7971 H   0  0  0  0  0  0
    3.3188   -5.0587    5.6617 H   0  0  0  0  0  0
    1.7389   -4.5094    5.1265 H   0  0  0  0  0  0
    0.8116   -6.8199    5.4840 H   0  0  0  0  0  0
    2.3828   -7.3602    6.0484 H   0  0  0  0  0  0
    2.2685   -5.7131    7.9466 H   0  0  0  0  0  0
    0.7009   -5.1640    7.3766 H   0  0  0  0  0  0
   -0.2296   -7.4786    7.7050 H   0  0  0  0  0  0
    1.3358   -8.0274    8.2781 H   0  0  0  0  0  0
    1.2039   -6.4044   10.1962 H   0  0  0  0  0  0
   -0.3598   -5.8507    9.6208 H   0  0  0  0  0  0
   -1.2908   -8.1668    9.9203 H   0  0  0  0  0  0
    0.2716   -8.7218   10.4944 H   0  0  0  0  0  0
   -1.2525   -8.2382   12.4267 H   0  0  0  0  0  0
   -1.4481   -6.5687   11.8735 H   0  0  0  0  0  0
    0.1256   -7.1284   12.4522 H   0  0  0  0  0  0
  1  2  1  0  0  0
  1 29  1  0  0  0
  1 30  1  0  0  0
  1 31  1  0  0  0
  2  3  1  0  0  0
  2 32  1  0  0  0
  2 33  1  0  0  0
  3  4  1  0  0  0
  3 34  1  0  0  0
  3 35  1  0  0  0
  4  5  1  0  0  0
  4 36  1  0  0  0
  4 37  1  0  0  0
  5  6  1  0  0  0
  5 38  1  0  0  0
  5 39  1  0  0  0
  6  7  1  0  0  0
  6 40  1  0  0  0
  6 41  1  0  0  0
  7  8  1  0  0  0
  7 42  1  0  0  0
  7 43  1  0  0  0
  8  9  1  0  0  0
  8 44  1  0  0  0
  8 45  1  0  0  0
  9 10  1  0  0  0
  9 46  1  0  0  0
  9 47  1  0  0  0
 10 11  1  0  0  0
 10 48  1  0  0  0
 10 49  1  0  0  0
 11 12  1  0  0  0
 11 50  1  0  0  0
 11 51  1  0  0  0
 12 13  1  0  0  0
 12 52  1  0  0  0
 12 53  1  0  0  0
 13 14  1  0  0  0
 13 54  1  0  0  0
 13 55  1  0  0  0
 14 15  1  0  0  0
 14 56  1  0  0  0
 14 57  1  0  0  0
 15 16  1  0  0  0
 15 58  1  0  0  0
 15 59  1  0  0  0
 16 17  1  0  0  0
 16 60  1  0  0  0
 16 61  1  0  0  0
 17 18  1  0  0  0
 17 62  1  0  0  0
 17 63  1  0  0  0
 18 19  1  0  0  0
 18 64  1  0  0  0
 18 65  1  0  0  0
 19 20  1  0  0  0
 19 66  1  0  0  0
 19 67  1  0  0  0
 20 21  1  0  0  0
 20 68  1  0  0  0
 20 69  1  0  0  0
 21 22  1  0  0  0
 21 70  1  0  0  0
 21 71  1  0  0  0
 22 23  1  0  0  0
 22 72  1  0  0  0
 22 73  1  0  0  0
 23 24  1  0  0  0
 23 74  1  0  0  0
 23 75  1  0  0  0
 24 25  1  0  0  0
 24 76  1  0  0  0
 24 77  1  0  0  0
 25 26  1  0  0  0
 25 78  1  0  0  0
 25 79  1  0  0  0
 26 27  1  0  0  0
 26 80  1  0  0  0
 26 81  1  0  0  0
 27 28  1  0  0  0
 27 82  1  0  0  0
 27 83  1  0  0  0
 28 84  1  0  0  0
 28 85  1  0  0  0
 28 86  1  0  0  0
M  END
> <i_m_Spin_multiplicity>
1

> <s_j_Task>
Single Point

> <s_j_QM_Method>
DFT(b3lyp-d3)

> <s_j_QM_Basis>
cc-pvtz(-f)

> <i_j_Number_of_canonical_orbitals>
1157

> <i_j_Geometry_convergence_category>
4

> <r_j_Gas_Phase_Energy>
-1102.42552841749

> <r_j_Final_Energy>
-1102.42552841749

> <r_j_HOMO>
-0.274493209890156

> <r_j_LUMO>
-0.0624505815608984

> <r_j_Polarizability>
347.913292132326

> <r_j_QM_Dipole_(debye)>
0.0636571101707672

> <r_j_QM_Dipole_X_(debye)>
0.0537008829875015

> <r_j_QM_Dipole_Y_(debye)>
0.0122545025113784

> <r_j_QM_Dipole_Z_(debye)>
-0.0319103433051805

> <r_j_Lowest_Frequency_(cm-1)>
18.3748929990707

> <r_j_Highest_Frequency_(cm-1)>
3044.99517920315

> <r_j_2nd_Lowest_Frequency_(cm-1)>
23.8493824204239

> <i_j_Num_Negative_Frequencies>
0

> <r_j_Zero_Point_Energy_(kcal/mol)>
511.799847377735

> <r_j_Entropy_(cal/mol/K)_298.15K_1.00E+00atm>
206.62528074721

> <r_j_Enthalpy_(kcal/mol)_298.15K_1.00E+00atm>
22.1930345287314

> <r_j_Free_Energy_(kcal/mol)_298.15K_1.00E+00atm>
-39.4122929260492

> <r_j_Internal_Energy_(kcal/mol)_298.15K_1.00E+00atm>
21.6005489399041

> <r_j_Heat_Capacity_(cal/mol/K)_298.15K_1.00E+00atm>
132.856830566622

> <r_j_ln(Q)_298.15K_1.00E+00atm>
66.5202557990638

> <r_j_Total_Internal_Energy_(au)_298.15K_1.00E+00atm>
-1101.57550077358

> <r_j_Total_Enthalpy_(au)_298.15K_1.00E+00atm>
-1101.57455658769

> <r_j_Total_Free_Energy_(au)_298.15K_1.00E+00atm>
-1101.67273092672

> <r_lp_tautomer_probability>
1

> <r_epik_Ionization_Penalty>
  0.0000

> <r_epik_Ionization_Penalty_Charging>
  0.0000

> <r_epik_Ionization_Penalty_Neutral>
  0.0000

> <r_epik_State_Penalty>
  0.0000

> <r_epik_Charging_Adjusted_Penalty>
0

> <i_epik_Tot_Q>
0

> <i_epik_Tot_abs_Q>
0

> <s_lp_Force_Field>
S-OPLS

> <r_lp_Energy>
15.2335

> <b_lp_Chiralities_Consistent>
1

$$$$
