12409_n-Nonacosane
                    3D
 Schrodinger Suite 2021-3.
 89 88  0  0  1  0            999 V2000
  -13.6954    1.3111   -2.4873 C   0  0  0  0  0  0
  -12.5539    0.3053   -2.6627 C   0  0  0  0  0  0
  -11.1923    0.8548   -2.2200 C   0  0  0  0  0  0
  -10.0487   -0.1502   -2.3958 C   0  0  0  0  0  0
   -8.6803    0.3866   -1.9596 C   0  0  0  0  0  0
   -7.5528   -0.6352   -2.1557 C   0  0  0  0  0  0
   -6.1720   -0.1686   -1.6716 C   0  0  0  0  0  0
   -5.6172    1.0503   -2.4271 C   0  0  0  0  0  0
   -4.1235    1.3078   -2.1772 C   0  0  0  0  0  0
   -3.7650    1.6863   -0.7334 C   0  0  0  0  0  0
   -2.2539    1.8422   -0.5271 C   0  0  0  0  0  0
   -1.8555    2.2451    0.8999 C   0  0  0  0  0  0
   -0.3346    2.2438    1.1380 C   0  0  0  0  0  0
    0.2716    0.8352    1.2081 C   0  0  0  0  0  0
    1.8026    0.8116    1.2881 C   0  0  0  0  0  0
    2.3631   -0.6137    1.3675 C   0  0  0  0  0  0
    3.8903   -0.6982    1.2675 C   0  0  0  0  0  0
    4.4087   -2.1400    1.3362 C   0  0  0  0  0  0
    5.9106   -2.2774    1.0630 C   0  0  0  0  0  0
    6.3991   -3.7301    1.1182 C   0  0  0  0  0  0
    7.8580   -3.9073    0.6833 C   0  0  0  0  0  0
    8.3312   -5.3653    0.7278 C   0  0  0  0  0  0
    9.7347   -5.5689    0.1459 C   0  0  0  0  0  0
   10.2014   -7.0303    0.1901 C   0  0  0  0  0  0
   11.5776   -7.2785   -0.4482 C   0  0  0  0  0  0
   11.6125   -7.0558   -1.9663 C   0  0  0  0  0  0
   12.9649   -7.3927   -2.6041 C   0  0  0  0  0  0
   12.9903   -7.1628   -4.1202 C   0  0  0  0  0  0
   14.3402   -7.5021   -4.7591 C   0  0  0  0  0  0
  -14.6544    0.8928   -2.8108 H   0  0  0  0  0  0
  -13.5134    2.2199   -3.0725 H   0  0  0  0  0  0
  -13.7991    1.6107   -1.4379 H   0  0  0  0  0  0
  -12.7769   -0.6074   -2.0932 H   0  0  0  0  0  0
  -12.4933   -0.0024   -3.7157 H   0  0  0  0  0  0
  -10.9666    1.7681   -2.7895 H   0  0  0  0  0  0
  -11.2496    1.1625   -1.1659 H   0  0  0  0  0  0
  -10.2777   -1.0633   -1.8274 H   0  0  0  0  0  0
   -9.9963   -0.4574   -3.4504 H   0  0  0  0  0  0
   -8.4572    1.3025   -2.5227 H   0  0  0  0  0  0
   -8.7226    0.6826   -0.9012 H   0  0  0  0  0  0
   -7.8202   -1.5617   -1.6292 H   0  0  0  0  0  0
   -7.4899   -0.8998   -3.2213 H   0  0  0  0  0  0
   -6.2228    0.0490   -0.5965 H   0  0  0  0  0  0
   -5.4630   -1.0014   -1.7794 H   0  0  0  0  0  0
   -5.7721    0.8972   -3.5044 H   0  0  0  0  0  0
   -6.1907    1.9486   -2.1626 H   0  0  0  0  0  0
   -3.5572    0.4088   -2.4619 H   0  0  0  0  0  0
   -3.7778    2.1066   -2.8474 H   0  0  0  0  0  0
   -4.2796    2.6191   -0.4610 H   0  0  0  0  0  0
   -4.1382    0.9198   -0.0415 H   0  0  0  0  0  0
   -1.7698    0.8941   -0.7956 H   0  0  0  0  0  0
   -1.8613    2.5894   -1.2320 H   0  0  0  0  0  0
   -2.2618    3.2426    1.1130 H   0  0  0  0  0  0
   -2.3326    1.5637    1.6192 H   0  0  0  0  0  0
    0.1567    2.8159    0.3376 H   0  0  0  0  0  0
   -0.1077    2.7745    2.0721 H   0  0  0  0  0  0
   -0.1498    0.3080    2.0762 H   0  0  0  0  0  0
   -0.0358    0.2550    0.3283 H   0  0  0  0  0  0
    2.2161    1.3172    0.4035 H   0  0  0  0  0  0
    2.1425    1.3933    2.1567 H   0  0  0  0  0  0
    2.0292   -1.0844    2.3033 H   0  0  0  0  0  0
    1.9243   -1.2143    0.5574 H   0  0  0  0  0  0
    4.2132   -0.2411    0.3210 H   0  0  0  0  0  0
    4.3516   -0.1001    2.0661 H   0  0  0  0  0  0
    4.1726   -2.5666    2.3215 H   0  0  0  0  0  0
    3.8599   -2.7516    0.6053 H   0  0  0  0  0  0
    6.1330   -1.8587    0.0708 H   0  0  0  0  0  0
    6.4778   -1.6695    1.7821 H   0  0  0  0  0  0
    6.2665   -4.1227    2.1365 H   0  0  0  0  0  0
    5.7590   -4.3483    0.4720 H   0  0  0  0  0  0
    7.9743   -3.5214   -0.3398 H   0  0  0  0  0  0
    8.5116   -3.2893    1.3153 H   0  0  0  0  0  0
    8.3035   -5.7288    1.7650 H   0  0  0  0  0  0
    7.6203   -5.9919    0.1698 H   0  0  0  0  0  0
    9.7386   -5.2067   -0.8904 H   0  0  0  0  0  0
   10.4557   -4.9412    0.6894 H   0  0  0  0  0  0
   10.2231   -7.3627    1.2368 H   0  0  0  0  0  0
    9.4548   -7.6624   -0.3124 H   0  0  0  0  0  0
   12.3260   -6.6322    0.0325 H   0  0  0  0  0  0
   11.8877   -8.3108   -0.2360 H   0  0  0  0  0  0
   10.8279   -7.6664   -2.4367 H   0  0  0  0  0  0
   11.3625   -6.0122   -2.1976 H   0  0  0  0  0  0
   13.7527   -6.7882   -2.1318 H   0  0  0  0  0  0
   13.2196   -8.4410   -2.3908 H   0  0  0  0  0  0
   12.1997   -7.7646   -4.5893 H   0  0  0  0  0  0
   12.7372   -6.1145   -4.3302 H   0  0  0  0  0  0
   14.3293   -7.3279   -5.8402 H   0  0  0  0  0  0
   14.6016   -8.5536   -4.5931 H   0  0  0  0  0  0
   15.1435   -6.8916   -4.3307 H   0  0  0  0  0  0
  1  2  1  0  0  0
  1 30  1  0  0  0
  1 31  1  0  0  0
  1 32  1  0  0  0
  2  3  1  0  0  0
  2 33  1  0  0  0
  2 34  1  0  0  0
  3  4  1  0  0  0
  3 35  1  0  0  0
  3 36  1  0  0  0
  4  5  1  0  0  0
  4 37  1  0  0  0
  4 38  1  0  0  0
  5  6  1  0  0  0
  5 39  1  0  0  0
  5 40  1  0  0  0
  6  7  1  0  0  0
  6 41  1  0  0  0
  6 42  1  0  0  0
  7  8  1  0  0  0
  7 43  1  0  0  0
  7 44  1  0  0  0
  8  9  1  0  0  0
  8 45  1  0  0  0
  8 46  1  0  0  0
  9 10  1  0  0  0
  9 47  1  0  0  0
  9 48  1  0  0  0
 10 11  1  0  0  0
 10 49  1  0  0  0
 10 50  1  0  0  0
 11 12  1  0  0  0
 11 51  1  0  0  0
 11 52  1  0  0  0
 12 13  1  0  0  0
 12 53  1  0  0  0
 12 54  1  0  0  0
 13 14  1  0  0  0
 13 55  1  0  0  0
 13 56  1  0  0  0
 14 15  1  0  0  0
 14 57  1  0  0  0
 14 58  1  0  0  0
 15 16  1  0  0  0
 15 59  1  0  0  0
 15 60  1  0  0  0
 16 17  1  0  0  0
 16 61  1  0  0  0
 16 62  1  0  0  0
 17 18  1  0  0  0
 17 63  1  0  0  0
 17 64  1  0  0  0
 18 19  1  0  0  0
 18 65  1  0  0  0
 18 66  1  0  0  0
 19 20  1  0  0  0
 19 67  1  0  0  0
 19 68  1  0  0  0
 20 21  1  0  0  0
 20 69  1  0  0  0
 20 70  1  0  0  0
 21 22  1  0  0  0
 21 71  1  0  0  0
 21 72  1  0  0  0
 22 23  1  0  0  0
 22 73  1  0  0  0
 22 74  1  0  0  0
 23 24  1  0  0  0
 23 75  1  0  0  0
 23 76  1  0  0  0
 24 25  1  0  0  0
 24 77  1  0  0  0
 24 78  1  0  0  0
 25 26  1  0  0  0
 25 79  1  0  0  0
 25 80  1  0  0  0
 26 27  1  0  0  0
 26 81  1  0  0  0
 26 82  1  0  0  0
 27 28  1  0  0  0
 27 83  1  0  0  0
 27 84  1  0  0  0
 28 29  1  0  0  0
 28 85  1  0  0  0
 28 86  1  0  0  0
 29 87  1  0  0  0
 29 88  1  0  0  0
 29 89  1  0  0  0
M  END
> <i_m_Spin_multiplicity>
1

> <s_j_Task>
Single Point

> <s_j_QM_Method>
DFT(b3lyp-d3)

> <s_j_QM_Basis>
cc-pvtz(-f)

> <i_j_Number_of_canonical_orbitals>
1197

> <i_j_Geometry_convergence_category>
4

> <r_j_Gas_Phase_Energy>
-1141.75439197839

> <r_j_Final_Energy>
-1141.75439197839

> <r_j_HOMO>
-0.286037638102409

> <r_j_LUMO>
0.00248474650109069

> <r_j_Polarizability>
362.657671060134

> <r_j_QM_Dipole_(debye)>
0.0368594773634155

> <r_j_QM_Dipole_X_(debye)>
-0.0202106199227396

> <r_j_QM_Dipole_Y_(debye)>
-0.0130809685567474

> <r_j_QM_Dipole_Z_(debye)>
0.0279112911822454

> <r_j_Lowest_Frequency_(cm-1)>
15.4648986009488

> <r_j_Highest_Frequency_(cm-1)>
3045.198060514

> <r_j_2nd_Lowest_Frequency_(cm-1)>
24.9591475862139

> <i_j_Num_Negative_Frequencies>
0

> <r_j_Zero_Point_Energy_(kcal/mol)>
529.631068749464

> <r_j_Entropy_(cal/mol/K)_298.15K_1.00E+00atm>
212.311568161186

> <r_j_Enthalpy_(kcal/mol)_298.15K_1.00E+00atm>
22.9848703712823

> <r_j_Free_Energy_(kcal/mol)_298.15K_1.00E+00atm>
-40.3158236759754

> <r_j_Internal_Energy_(kcal/mol)_298.15K_1.00E+00atm>
22.392384782455

> <r_j_Heat_Capacity_(cal/mol/K)_298.15K_1.00E+00atm>
137.636413822466

> <r_j_ln(Q)_298.15K_1.00E+00atm>
68.0452393040881

> <r_j_Total_Internal_Energy_(au)_298.15K_1.00E+00atm>
-1140.87468660353

> <r_j_Total_Enthalpy_(au)_298.15K_1.00E+00atm>
-1140.87374241764

> <r_j_Total_Free_Energy_(au)_298.15K_1.00E+00atm>
-1140.97461849533

> <r_lp_tautomer_probability>
1

> <r_epik_Ionization_Penalty>
  0.0000

> <r_epik_Ionization_Penalty_Charging>
  0.0000

> <r_epik_Ionization_Penalty_Neutral>
  0.0000

> <r_epik_State_Penalty>
  0.0000

> <r_epik_Charging_Adjusted_Penalty>
0

> <i_epik_Tot_Q>
0

> <i_epik_Tot_abs_Q>
0

> <s_lp_Force_Field>
S-OPLS

> <r_lp_Energy>
15.772859

> <b_lp_Chiralities_Consistent>
1

$$$$
