12404_n-Eicosanol
                    3D
 Schrodinger Suite 2021-3.
 63 62  0  0  1  0            999 V2000
   -5.1630    8.9506   -2.5516 C   0  0  0  0  0  0
   -4.5546    7.5453   -2.5328 C   0  0  0  0  0  0
   -4.9588    6.7294   -1.2989 C   0  0  0  0  0  0
   -4.3471    5.3240   -1.2774 C   0  0  0  0  0  0
   -4.7351    4.5077   -0.0371 C   0  0  0  0  0  0
   -4.1994    3.0668   -0.0358 C   0  0  0  0  0  0
   -2.6698    2.9619    0.0181 C   0  0  0  0  0  0
   -2.1558    1.5180    0.0547 C   0  0  0  0  0  0
   -0.6257    1.4294    0.0777 C   0  0  0  0  0  0
   -0.0852   -0.0048    0.0607 C   0  0  0  0  0  0
    1.4468   -0.0657    0.0608 C   0  0  0  0  0  0
    2.0024   -1.4941   -0.0085 C   0  0  0  0  0  0
    3.5354   -1.5852    0.0671 C   0  0  0  0  0  0
    4.2639   -0.9389   -1.1207 C   0  0  0  0  0  0
    5.7966   -1.0195   -1.0449 C   0  0  0  0  0  0
    6.3709   -2.4387   -1.1455 C   0  0  0  0  0  0
    7.9036   -2.4639   -1.1583 C   0  0  0  0  0  0
    8.4892   -3.8766   -1.2627 C   0  0  0  0  0  0
   10.0212   -3.8907   -1.2812 C   0  0  0  0  0  0
   10.6016   -5.2939   -1.3884 C   0  0  0  0  0  0
   12.0218   -5.1816   -1.3967 O   0  0  0  0  0  0
   -4.8577    9.5099   -3.4421 H   0  0  0  0  0  0
   -4.8512    9.5267   -1.6727 H   0  0  0  0  0  0
   -6.2581    8.9064   -2.5444 H   0  0  0  0  0  0
   -4.8552    7.0017   -3.4389 H   0  0  0  0  0  0
   -3.4591    7.6184   -2.5734 H   0  0  0  0  0  0
   -4.6579    7.2717   -0.3908 H   0  0  0  0  0  0
   -6.0548    6.6532   -1.2557 H   0  0  0  0  0  0
   -4.6579    4.7782   -2.1803 H   0  0  0  0  0  0
   -3.2549    5.4136   -1.3391 H   0  0  0  0  0  0
   -4.3806    5.0281    0.8643 H   0  0  0  0  0  0
   -5.8305    4.4807    0.0399 H   0  0  0  0  0  0
   -4.6223    2.5286    0.8233 H   0  0  0  0  0  0
   -4.5660    2.5442   -0.9312 H   0  0  0  0  0  0
   -2.2312    3.4681   -0.8515 H   0  0  0  0  0  0
   -2.3010    3.5035    0.9015 H   0  0  0  0  0  0
   -2.5677    1.0016    0.9335 H   0  0  0  0  0  0
   -2.5379    0.9753   -0.8220 H   0  0  0  0  0  0
   -0.2214    1.9750   -0.7871 H   0  0  0  0  0  0
   -0.2447    1.9515    0.9672 H   0  0  0  0  0  0
   -0.4757   -0.5562    0.9280 H   0  0  0  0  0  0
   -0.4694   -0.5266   -0.8277 H   0  0  0  0  0  0
    1.8215    0.5220   -0.7872 H   0  0  0  0  0  0
    1.8309    0.4286    0.9650 H   0  0  0  0  0  0
    1.5705   -2.0817    0.8131 H   0  0  0  0  0  0
    1.6563   -1.9719   -0.9364 H   0  0  0  0  0  0
    3.8812   -1.1146    0.9992 H   0  0  0  0  0  0
    3.8189   -2.6424    0.1374 H   0  0  0  0  0  0
    3.9206   -1.4104   -2.0533 H   0  0  0  0  0  0
    3.9773    0.1171   -1.1915 H   0  0  0  0  0  0
    6.2229   -0.4111   -1.8541 H   0  0  0  0  0  0
    6.1377   -0.5564   -0.1077 H   0  0  0  0  0  0
    6.0105   -3.0514   -0.3089 H   0  0  0  0  0  0
    5.9909   -2.9181   -2.0594 H   0  0  0  0  0  0
    8.2709   -1.8567   -1.9978 H   0  0  0  0  0  0
    8.2833   -1.9804   -0.2470 H   0  0  0  0  0  0
    8.1252   -4.4825   -0.4205 H   0  0  0  0  0  0
    8.1056   -4.3603   -2.1726 H   0  0  0  0  0  0
   10.3950   -3.2968   -2.1247 H   0  0  0  0  0  0
   10.4152   -3.4220   -0.3707 H   0  0  0  0  0  0
   10.2517   -5.9050   -0.5388 H   0  0  0  0  0  0
   10.2313   -5.7781   -2.3082 H   0  0  0  0  0  0
   12.3924   -6.0698   -1.4709 H   0  0  0  0  0  0
  1  2  1  0  0  0
  1 22  1  0  0  0
  1 23  1  0  0  0
  1 24  1  0  0  0
  2  3  1  0  0  0
  2 25  1  0  0  0
  2 26  1  0  0  0
  3  4  1  0  0  0
  3 27  1  0  0  0
  3 28  1  0  0  0
  4  5  1  0  0  0
  4 29  1  0  0  0
  4 30  1  0  0  0
  5  6  1  0  0  0
  5 31  1  0  0  0
  5 32  1  0  0  0
  6  7  1  0  0  0
  6 33  1  0  0  0
  6 34  1  0  0  0
  7  8  1  0  0  0
  7 35  1  0  0  0
  7 36  1  0  0  0
  8  9  1  0  0  0
  8 37  1  0  0  0
  8 38  1  0  0  0
  9 10  1  0  0  0
  9 39  1  0  0  0
  9 40  1  0  0  0
 10 11  1  0  0  0
 10 41  1  0  0  0
 10 42  1  0  0  0
 11 12  1  0  0  0
 11 43  1  0  0  0
 11 44  1  0  0  0
 12 13  1  0  0  0
 12 45  1  0  0  0
 12 46  1  0  0  0
 13 14  1  0  0  0
 13 47  1  0  0  0
 13 48  1  0  0  0
 14 15  1  0  0  0
 14 49  1  0  0  0
 14 50  1  0  0  0
 15 16  1  0  0  0
 15 51  1  0  0  0
 15 52  1  0  0  0
 16 17  1  0  0  0
 16 53  1  0  0  0
 16 54  1  0  0  0
 17 18  1  0  0  0
 17 55  1  0  0  0
 17 56  1  0  0  0
 18 19  1  0  0  0
 18 57  1  0  0  0
 18 58  1  0  0  0
 19 20  1  0  0  0
 19 59  1  0  0  0
 19 60  1  0  0  0
 20 21  1  0  0  0
 20 61  1  0  0  0
 20 62  1  0  0  0
 21 63  1  0  0  0
M  END
> <i_m_Spin_multiplicity>
1

> <s_j_Task>
Single Point

> <s_j_QM_Method>
DFT(b3lyp-d3)

> <s_j_QM_Basis>
cc-pvtz(-f)

> <i_j_Number_of_canonical_orbitals>
855

> <i_j_Geometry_convergence_category>
3

> <r_j_Gas_Phase_Energy>
-863.032423551377

> <r_j_Final_Energy>
-863.032423551377

> <r_j_HOMO>
-0.267001547197951

> <r_j_LUMO>
0.00788339987207056

> <r_j_Polarizability>
254.195027588862

> <r_j_QM_Dipole_(debye)>
1.45769684961216

> <r_j_QM_Dipole_X_(debye)>
-0.761014788352619

> <r_j_QM_Dipole_Y_(debye)>
-1.23979099746993

> <r_j_QM_Dipole_Z_(debye)>
-0.093031606835189

> <r_j_Lowest_Frequency_(cm-1)>
23.1735469112474

> <r_j_Highest_Frequency_(cm-1)>
3773.07162364958

> <r_j_2nd_Lowest_Frequency_(cm-1)>
29.1650950497224

> <i_j_Num_Negative_Frequencies>
0

> <r_j_Zero_Point_Energy_(kcal/mol)>
372.008441862537

> <r_j_Entropy_(cal/mol/K)_298.15K_1.00E+00atm>
169.944794638461

> <r_j_Enthalpy_(kcal/mol)_298.15K_1.00E+00atm>
16.8163524635299

> <r_j_Free_Energy_(kcal/mol)_298.15K_1.00E+00atm>
-33.8526880579272

> <r_j_Internal_Energy_(kcal/mol)_298.15K_1.00E+00atm>
16.2238668747027

> <r_j_Heat_Capacity_(cal/mol/K)_298.15K_1.00E+00atm>
98.4810186789406

> <r_j_ln(Q)_298.15K_1.00E+00atm>
57.1367282112852

> <r_j_Total_Internal_Energy_(au)_298.15K_1.00E+00atm>
-862.413735982029

> <r_j_Total_Enthalpy_(au)_298.15K_1.00E+00atm>
-862.412791796137

> <r_j_Total_Free_Energy_(au)_298.15K_1.00E+00atm>
-862.493538052478

> <r_lp_tautomer_probability>
1

> <r_epik_Ionization_Penalty>
  0.0000

> <r_epik_Ionization_Penalty_Charging>
  0.0000

> <r_epik_Ionization_Penalty_Neutral>
  0.0000

> <r_epik_State_Penalty>
  0.0000

> <r_epik_Charging_Adjusted_Penalty>
0

> <i_epik_Tot_Q>
0

> <i_epik_Tot_abs_Q>
0

> <s_lp_Force_Field>
S-OPLS

> <r_lp_Energy>
11.766802

> <b_lp_Chiralities_Consistent>
1

$$$$
