12417_2,2-Dimethylpropanal
                    3D
 Schrodinger Suite 2021-3.
 16 15  0  0  1  0            999 V2000
   -0.4495    1.4728    0.0002 C   0  0  0  0  0  0
    0.0348    0.0166   -0.0002 C   0  0  0  0  0  0
   -0.4529   -0.7258    1.2612 C   0  0  0  0  0  0
   -0.4529   -0.7258   -1.2618 C   0  0  0  0  0  0
    1.5673   -0.0234   -0.0004 C   0  0  0  0  0  0
    2.2088   -1.0507    0.0009 O   0  0  0  0  0  0
   -1.5431    1.5145    0.0003 H   0  0  0  0  0  0
   -0.0944    2.0109   -0.8860 H   0  0  0  0  0  0
   -0.0943    2.0109    0.8864 H   0  0  0  0  0  0
   -0.1304   -0.2151    2.1750 H   0  0  0  0  0  0
   -0.0537   -1.7432    1.2793 H   0  0  0  0  0  0
   -1.5469   -0.7753    1.2698 H   0  0  0  0  0  0
   -1.5469   -0.7744   -1.2710 H   0  0  0  0  0  0
   -0.0545   -1.7435   -1.2794 H   0  0  0  0  0  0
   -0.1294   -0.2156   -2.1756 H   0  0  0  0  0  0
    2.0832    0.9662   -0.0019 H   0  0  0  0  0  0
  1  2  1  0  0  0
  1  7  1  0  0  0
  1  8  1  0  0  0
  1  9  1  0  0  0
  2  3  1  0  0  0
  2  4  1  0  0  0
  2  5  1  0  0  0
  3 10  1  0  0  0
  3 11  1  0  0  0
  3 12  1  0  0  0
  4 13  1  0  0  0
  4 14  1  0  0  0
  4 15  1  0  0  0
  5  6  2  0  0  0
  5 16  1  0  0  0
M  END
>  <i_m_Spin_multiplicity> (1)
1

>  <s_j_Task> (1)
Single Point

>  <s_j_QM_Method> (1)
DFT(b3lyp-d3)

>  <s_j_QM_Basis> (1)
cc-pvtz(-f)

>  <i_j_Number_of_canonical_orbitals> (1)
227

>  <i_j_Geometry_convergence_category> (1)
0

>  <r_j_Gas_Phase_Energy> (1)
-271.881281080515

>  <r_j_Final_Energy> (1)
-271.881281080515

>  <r_j_HOMO> (1)
-0.26038302694749

>  <r_j_LUMO> (1)
-0.0420981008689402

>  <r_j_Polarizability> (1)
62.794109483454

>  <r_j_QM_Dipole_(debye)> (1)
2.55725635007135

>  <r_j_QM_Dipole_X_(debye)> (1)
-1.89285666116074

>  <r_j_QM_Dipole_Y_(debye)> (1)
1.71949077501515

>  <r_j_QM_Dipole_Z_(debye)> (1)
-0.00227484449192238

>  <r_j_Lowest_Frequency_(cm-1)> (1)
99.5644210733197

>  <r_j_Highest_Frequency_(cm-1)> (1)
3074.90063550609

>  <r_j_2nd_Lowest_Frequency_(cm-1)> (1)
272.740974072016

>  <i_j_Num_Negative_Frequencies> (1)
0

>  <r_j_Zero_Point_Energy_(kcal/mol)> (1)
87.860235731485

>  <r_j_Entropy_(cal/mol/K)_298.15K_1.00E+00atm> (1)
81.0080635874537

>  <r_j_Enthalpy_(kcal/mol)_298.15K_1.00E+00atm> (1)
5.12674471980634

>  <r_j_Free_Energy_(kcal/mol)_298.15K_1.00E+00atm> (1)
-19.025809438793

>  <r_j_Internal_Energy_(kcal/mol)_298.15K_1.00E+00atm> (1)
4.53425913097906

>  <r_j_Heat_Capacity_(cal/mol/K)_298.15K_1.00E+00atm> (1)
26.6076926354248

>  <r_j_ln(Q)_298.15K_1.00E+00atm> (1)
32.1118518282468

>  <r_j_Total_Internal_Energy_(au)_298.15K_1.00E+00atm> (1)
-271.734041079719

>  <r_j_Total_Enthalpy_(au)_298.15K_1.00E+00atm> (1)
-271.733096893826

>  <r_j_Total_Free_Energy_(au)_298.15K_1.00E+00atm> (1)
-271.771586439105

>  <r_lp_tautomer_probability> (1)
1

>  <r_epik_Ionization_Penalty> (1)
  0.0000

>  <r_epik_Ionization_Penalty_Charging> (1)
  0.0000

>  <r_epik_Ionization_Penalty_Neutral> (1)
  0.0000

>  <r_epik_State_Penalty> (1)
  0.0000

>  <r_epik_Charging_Adjusted_Penalty> (1)
0

>  <i_epik_Tot_Q> (1)
0

>  <i_epik_Tot_abs_Q> (1)
0

>  <s_lp_Force_Field> (1)
S-OPLS

>  <r_lp_Energy> (1)
2.97867

>  <b_lp_Chiralities_Consistent> (1)
1

$$$$
