12411_n-Tritriacontane
                    3D
 Schrodinger Suite 2021-3.
101100  0  0  1  0            999 V2000
  -10.9738   -4.6356   -7.6247 C   0  0  0  0  0  0
  -10.2530   -3.9599   -6.4545 C   0  0  0  0  0  0
  -10.3395   -2.4291   -6.4953 C   0  0  0  0  0  0
   -9.6142   -1.7518   -5.3273 C   0  0  0  0  0  0
   -9.6852   -0.2206   -5.3576 C   0  0  0  0  0  0
   -8.9420    0.4356   -4.1882 C   0  0  0  0  0  0
   -8.9850    1.9694   -4.2156 C   0  0  0  0  0  0
   -8.3003    2.6402   -3.0136 C   0  0  0  0  0  0
   -6.7874    2.3979   -2.9333 C   0  0  0  0  0  0
   -6.1183    3.0922   -1.7412 C   0  0  0  0  0  0
   -4.6113    2.8207   -1.6591 C   0  0  0  0  0  0
   -3.9421    3.4538   -0.4321 C   0  0  0  0  0  0
   -2.4189    3.2573   -0.3680 C   0  0  0  0  0  0
   -1.9734    1.7924   -0.2613 C   0  0  0  0  0  0
   -0.4597    1.6273   -0.0812 C   0  0  0  0  0  0
   -0.0152    0.1609   -0.0266 C   0  0  0  0  0  0
    1.4923   -0.0181    0.1864 C   0  0  0  0  0  0
    1.9308   -1.4875    0.2113 C   0  0  0  0  0  0
    3.4312   -1.6667    0.4786 C   0  0  0  0  0  0
    3.9242   -3.1206    0.4060 C   0  0  0  0  0  0
    3.2906   -4.0595    1.4417 C   0  0  0  0  0  0
    3.9188   -5.4583    1.4561 C   0  0  0  0  0  0
    3.2487   -6.4133    2.4508 C   0  0  0  0  0  0
    3.9239   -7.7875    2.5319 C   0  0  0  0  0  0
    3.2164   -8.7482    3.4977 C   0  0  0  0  0  0
    3.9619  -10.0682    3.7458 C   0  0  0  0  0  0
    4.1234  -10.9597    2.5070 C   0  0  0  0  0  0
    4.8098  -12.2941    2.8217 C   0  0  0  0  0  0
    5.0010  -13.1965    1.5973 C   0  0  0  0  0  0
    5.6957  -14.5221    1.9302 C   0  0  0  0  0  0
    5.9014  -15.4343    0.7159 C   0  0  0  0  0  0
    6.6011  -16.7544    1.0618 C   0  0  0  0  0  0
    6.8069  -17.6636   -0.1534 C   0  0  0  0  0  0
  -10.8956   -5.7266   -7.5704 H   0  0  0  0  0  0
  -10.5503   -4.3181   -8.5846 H   0  0  0  0  0  0
  -12.0392   -4.3774   -7.6336 H   0  0  0  0  0  0
  -10.6740   -4.3198   -5.5056 H   0  0  0  0  0  0
   -9.1963   -4.2610   -6.4502 H   0  0  0  0  0  0
   -9.9199   -2.0669   -7.4450 H   0  0  0  0  0  0
  -11.3962   -2.1245   -6.4962 H   0  0  0  0  0  0
  -10.0356   -2.1154   -4.3790 H   0  0  0  0  0  0
   -8.5598   -2.0642   -5.3274 H   0  0  0  0  0  0
   -9.2661    0.1449   -6.3062 H   0  0  0  0  0  0
  -10.7376    0.0977   -5.3491 H   0  0  0  0  0  0
   -9.3704    0.0799   -3.2396 H   0  0  0  0  0  0
   -7.8995    0.0916   -4.1967 H   0  0  0  0  0  0
   -8.5201    2.3284   -5.1453 H   0  0  0  0  0  0
  -10.0338    2.2938   -4.2563 H   0  0  0  0  0  0
   -8.4849    3.7224   -3.0536 H   0  0  0  0  0  0
   -8.7726    2.2862   -2.0856 H   0  0  0  0  0  0
   -6.5859    1.3207   -2.8692 H   0  0  0  0  0  0
   -6.3165    2.7391   -3.8669 H   0  0  0  0  0  0
   -6.2950    4.1759   -1.7975 H   0  0  0  0  0  0
   -6.5984    2.7554   -0.8108 H   0  0  0  0  0  0
   -4.4494    1.7349   -1.6506 H   0  0  0  0  0  0
   -4.1231    3.1927   -2.5718 H   0  0  0  0  0  0
   -4.1639    4.5298   -0.4212 H   0  0  0  0  0  0
   -4.3986    3.0411    0.4793 H   0  0  0  0  0  0
   -1.9562    3.7109   -1.2565 H   0  0  0  0  0  0
   -2.0251    3.8118    0.4948 H   0  0  0  0  0  0
   -2.4936    1.3161    0.5828 H   0  0  0  0  0  0
   -2.2854    1.2418   -1.1584 H   0  0  0  0  0  0
    0.0630    2.1347   -0.9049 H   0  0  0  0  0  0
   -0.1434    2.1400    0.8387 H   0  0  0  0  0  0
   -0.5579   -0.3532    0.7799 H   0  0  0  0  0  0
   -0.3129   -0.3422   -0.9581 H   0  0  0  0  0  0
    2.0393    0.5122   -0.6064 H   0  0  0  0  0  0
    1.7850    0.4647    1.1301 H   0  0  0  0  0  0
    1.3502   -2.0187    0.9768 H   0  0  0  0  0  0
    1.6733   -1.9606   -0.7477 H   0  0  0  0  0  0
    3.9951   -1.0638   -0.2464 H   0  0  0  0  0  0
    3.6715   -1.2525    1.4685 H   0  0  0  0  0  0
    3.7387   -3.5184   -0.6022 H   0  0  0  0  0  0
    5.0148   -3.1308    0.5390 H   0  0  0  0  0  0
    3.3827   -3.6114    2.4421 H   0  0  0  0  0  0
    2.2136   -4.1536    1.2504 H   0  0  0  0  0  0
    3.8700   -5.8918    0.4467 H   0  0  0  0  0  0
    4.9885   -5.3726    1.6962 H   0  0  0  0  0  0
    3.2451   -5.9537    3.4498 H   0  0  0  0  0  0
    2.1921   -6.5413    2.1746 H   0  0  0  0  0  0
    3.9646   -8.2286    1.5272 H   0  0  0  0  0  0
    4.9691   -7.6586    2.8494 H   0  0  0  0  0  0
    3.0739   -8.2386    4.4606 H   0  0  0  0  0  0
    2.2072   -8.9640    3.1179 H   0  0  0  0  0  0
    4.9561   -9.8474    4.1609 H   0  0  0  0  0  0
    3.4303  -10.6359    4.5217 H   0  0  0  0  0  0
    3.1347  -11.1511    2.0648 H   0  0  0  0  0  0
    4.7031  -10.4318    1.7385 H   0  0  0  0  0  0
    5.7893  -12.0962    3.2807 H   0  0  0  0  0  0
    4.2251  -12.8328    3.5815 H   0  0  0  0  0  0
    4.0232  -13.4016    1.1381 H   0  0  0  0  0  0
    5.5858  -12.6596    0.8366 H   0  0  0  0  0  0
    6.6702  -14.3126    2.3946 H   0  0  0  0  0  0
    5.1088  -15.0575    2.6905 H   0  0  0  0  0  0
    4.9282  -15.6497    0.2513 H   0  0  0  0  0  0
    6.4883  -14.9011   -0.0461 H   0  0  0  0  0  0
    7.5723  -16.5365    1.5269 H   0  0  0  0  0  0
    6.0134  -17.2854    1.8233 H   0  0  0  0  0  0
    7.3084  -18.5973    0.1222 H   0  0  0  0  0  0
    7.4188  -17.1689   -0.9167 H   0  0  0  0  0  0
    5.8487  -17.9240   -0.6178 H   0  0  0  0  0  0
  1  2  1  0  0  0
  1 34  1  0  0  0
  1 35  1  0  0  0
  1 36  1  0  0  0
  2  3  1  0  0  0
  2 37  1  0  0  0
  2 38  1  0  0  0
  3  4  1  0  0  0
  3 39  1  0  0  0
  3 40  1  0  0  0
  4  5  1  0  0  0
  4 41  1  0  0  0
  4 42  1  0  0  0
  5  6  1  0  0  0
  5 43  1  0  0  0
  5 44  1  0  0  0
  6  7  1  0  0  0
  6 45  1  0  0  0
  6 46  1  0  0  0
  7  8  1  0  0  0
  7 47  1  0  0  0
  7 48  1  0  0  0
  8  9  1  0  0  0
  8 49  1  0  0  0
  8 50  1  0  0  0
  9 10  1  0  0  0
  9 51  1  0  0  0
  9 52  1  0  0  0
 10 11  1  0  0  0
 10 53  1  0  0  0
 10 54  1  0  0  0
 11 12  1  0  0  0
 11 55  1  0  0  0
 11 56  1  0  0  0
 12 13  1  0  0  0
 12 57  1  0  0  0
 12 58  1  0  0  0
 13 14  1  0  0  0
 13 59  1  0  0  0
 13 60  1  0  0  0
 14 15  1  0  0  0
 14 61  1  0  0  0
 14 62  1  0  0  0
 15 16  1  0  0  0
 15 63  1  0  0  0
 15 64  1  0  0  0
 16 17  1  0  0  0
 16 65  1  0  0  0
 16 66  1  0  0  0
 17 18  1  0  0  0
 17 67  1  0  0  0
 17 68  1  0  0  0
 18 19  1  0  0  0
 18 69  1  0  0  0
 18 70  1  0  0  0
 19 20  1  0  0  0
 19 71  1  0  0  0
 19 72  1  0  0  0
 20 21  1  0  0  0
 20 73  1  0  0  0
 20 74  1  0  0  0
 21 22  1  0  0  0
 21 75  1  0  0  0
 21 76  1  0  0  0
 22 23  1  0  0  0
 22 77  1  0  0  0
 22 78  1  0  0  0
 23 24  1  0  0  0
 23 79  1  0  0  0
 23 80  1  0  0  0
 24 25  1  0  0  0
 24 81  1  0  0  0
 24 82  1  0  0  0
 25 26  1  0  0  0
 25 83  1  0  0  0
 25 84  1  0  0  0
 26 27  1  0  0  0
 26 85  1  0  0  0
 26 86  1  0  0  0
 27 28  1  0  0  0
 27 87  1  0  0  0
 27 88  1  0  0  0
 28 29  1  0  0  0
 28 89  1  0  0  0
 28 90  1  0  0  0
 29 30  1  0  0  0
 29 91  1  0  0  0
 29 92  1  0  0  0
 30 31  1  0  0  0
 30 93  1  0  0  0
 30 94  1  0  0  0
 31 32  1  0  0  0
 31 95  1  0  0  0
 31 96  1  0  0  0
 32 33  1  0  0  0
 32 97  1  0  0  0
 32 98  1  0  0  0
 33 99  1  0  0  0
 33100  1  0  0  0
 33101  1  0  0  0
M  END
> <i_m_Spin_multiplicity>
1

> <s_j_Task>
Single Point

> <s_j_QM_Method>
DFT(b3lyp-d3)

> <s_j_QM_Basis>
cc-pvtz(-f)

> <i_j_Number_of_canonical_orbitals>
1361

> <i_j_Geometry_convergence_category>
3

> <r_j_Gas_Phase_Energy>
-1299.07336803626

> <r_j_Final_Energy>
-1299.07336803626

> <r_j_HOMO>
-0.272134259115093

> <r_j_LUMO>
-0.0589192215524134

> <r_j_Polarizability>
412.292136919471

> <r_j_QM_Dipole_(debye)>
0.109697007385674

> <r_j_QM_Dipole_X_(debye)>
0.024346452936105

> <r_j_QM_Dipole_Y_(debye)>
0.0415998830704951

> <r_j_QM_Dipole_Z_(debye)>
0.0985400090690264

> <r_j_Lowest_Frequency_(cm-1)>
14.4016822695968

> <r_j_Highest_Frequency_(cm-1)>
3045.02364206217

> <r_j_2nd_Lowest_Frequency_(cm-1)>
19.614882651571

> <i_j_Num_Negative_Frequencies>
0

> <r_j_Zero_Point_Energy_(kcal/mol)>
601.097813436142

> <r_j_Entropy_(cal/mol/K)_298.15K_1.00E+00atm>
233.036334148925

> <r_j_Enthalpy_(kcal/mol)_298.15K_1.00E+00atm>
26.0307960112169

> <r_j_Free_Energy_(kcal/mol)_298.15K_1.00E+00atm>
-43.4489870152852

> <r_j_Internal_Energy_(kcal/mol)_298.15K_1.00E+00atm>
25.4383104223896

> <r_j_Heat_Capacity_(cal/mol/K)_298.15K_1.00E+00atm>
156.594453628743

> <r_j_ln(Q)_298.15K_1.00E+00atm>
73.3334073176112

> <r_j_Total_Internal_Energy_(au)_298.15K_1.00E+00atm>
-1298.07491916208

> <r_j_Total_Enthalpy_(au)_298.15K_1.00E+00atm>
-1298.07397497619

> <r_j_Total_Free_Energy_(au)_298.15K_1.00E+00atm>
-1298.18469805902

> <r_lp_tautomer_probability>
1

> <r_epik_Ionization_Penalty>
  0.0000

> <r_epik_Ionization_Penalty_Charging>
  0.0000

> <r_epik_Ionization_Penalty_Neutral>
  0.0000

> <r_epik_State_Penalty>
  0.0000

> <r_epik_Charging_Adjusted_Penalty>
0

> <i_epik_Tot_Q>
0

> <i_epik_Tot_abs_Q>
0

> <s_lp_Force_Field>
S-OPLS

> <r_lp_Energy>
17.949061

> <b_lp_Chiralities_Consistent>
1

$$$$
