12475_3,4,5,6-Tetrahydrophthalic anhydride
                    3D
 Schrodinger Suite 2021-3.
 19 20  0  0  1  0            999 V2000
   -0.2249    2.6011    0.6250 C   0  0  0  0  0  0
   -1.0859    1.8252    1.6415 C   0  0  0  0  0  0
   -1.6707    0.5325    1.0340 C   0  0  0  0  0  0
   -0.6147   -0.1665    0.2436 C   0  0  0  0  0  0
    0.5530    0.3744   -0.1373 C   0  0  0  0  0  0
    0.9875    1.7740    0.1471 C   0  0  0  0  0  0
    1.3127   -0.6552   -0.8935 C   0  0  0  0  0  0
    2.3919   -0.5856   -1.4130 O   0  0  0  0  0  0
    0.5382   -1.8171   -0.9306 O   0  0  0  0  0  0
   -0.6540   -1.5694   -0.2458 C   0  0  0  0  0  0
   -1.5066   -2.4036   -0.1178 O   0  0  0  0  0  0
    0.1190    3.5434    1.0625 H   0  0  0  0  0  0
   -0.8431    2.8616   -0.2436 H   0  0  0  0  0  0
   -0.4665    1.5623    2.5084 H   0  0  0  0  0  0
   -1.8964    2.4598    2.0128 H   0  0  0  0  0  0
   -2.0665   -0.1356    1.8070 H   0  0  0  0  0  0
   -2.5190    0.7610    0.3740 H   0  0  0  0  0  0
    1.4517    2.2124   -0.7433 H   0  0  0  0  0  0
    1.7735    1.7551    0.9148 H   0  0  0  0  0  0
  1  6  1  0  0  0
  1  2  1  0  0  0
  1 12  1  0  0  0
  1 13  1  0  0  0
  2  3  1  0  0  0
  2 14  1  0  0  0
  2 15  1  0  0  0
  3  4  1  0  0  0
  3 16  1  0  0  0
  3 17  1  0  0  0
  4 10  1  0  0  0
  4  5  2  0  0  0
  5  6  1  0  0  0
  5  7  1  0  0  0
  6 18  1  0  0  0
  6 19  1  0  0  0
  7  8  2  0  0  0
  7  9  1  0  0  0
  9 10  1  0  0  0
 10 11  2  0  0  0
M  END
>  <i_m_Spin_multiplicity> (1)
1

>  <s_j_Task> (1)
Single Point

>  <s_j_QM_Method> (1)
DFT(b3lyp-d3)

>  <s_j_QM_Basis> (1)
cc-pvtz(-f)

>  <i_j_Number_of_canonical_orbitals> (1)
320

>  <i_j_Geometry_convergence_category> (1)
0

>  <r_j_Gas_Phase_Energy> (1)
-535.552231607485

>  <r_j_Final_Energy> (1)
-535.552231607485

>  <r_j_HOMO> (1)
-0.297040406406375

>  <r_j_LUMO> (1)
-0.106592478173103

>  <r_j_Polarizability> (1)
93.5635663367929

>  <r_j_QM_Dipole_(debye)> (1)
5.50455991664744

>  <r_j_QM_Dipole_X_(debye)> (1)
-1.40644934111255

>  <r_j_QM_Dipole_Y_(debye)> (1)
4.73597736237986

>  <r_j_QM_Dipole_Z_(debye)> (1)
2.4274675177788

>  <r_j_Lowest_Frequency_(cm-1)> (1)
129.385593858141

>  <r_j_Highest_Frequency_(cm-1)> (1)
3040.89604901172

>  <r_j_2nd_Lowest_Frequency_(cm-1)> (1)
133.187263160246

>  <i_j_Num_Negative_Frequencies> (1)
0

>  <r_j_Zero_Point_Energy_(kcal/mol)> (1)
93.2655628391104

>  <r_j_Entropy_(cal/mol/K)_298.15K_1.00E+00atm> (1)
90.6064810121918

>  <r_j_Enthalpy_(kcal/mol)_298.15K_1.00E+00atm> (1)
5.95093392318609

>  <r_j_Free_Energy_(kcal/mol)_298.15K_1.00E+00atm> (1)
-21.0633883905989

>  <r_j_Internal_Energy_(kcal/mol)_298.15K_1.00E+00atm> (1)
5.35844833435882

>  <r_j_Heat_Capacity_(cal/mol/K)_298.15K_1.00E+00atm> (1)
33.6737448269046

>  <r_j_ln(Q)_298.15K_1.00E+00atm> (1)
35.5508872921117

>  <r_j_Total_Internal_Energy_(au)_298.15K_1.00E+00atm> (1)
-535.395064240475

>  <r_j_Total_Enthalpy_(au)_298.15K_1.00E+00atm> (1)
-535.394120054583

>  <r_j_Total_Free_Energy_(au)_298.15K_1.00E+00atm> (1)
-535.437170117738

>  <r_lp_tautomer_probability> (1)
1

>  <r_epik_Ionization_Penalty> (1)
  0.0000

>  <r_epik_Ionization_Penalty_Charging> (1)
  0.0000

>  <r_epik_Ionization_Penalty_Neutral> (1)
  0.0000

>  <r_epik_State_Penalty> (1)
  0.0000

>  <r_epik_Charging_Adjusted_Penalty> (1)
0

>  <i_epik_Tot_Q> (1)
0

>  <i_epik_Tot_abs_Q> (1)
0

>  <s_lp_Force_Field> (1)
S-OPLS

>  <r_lp_Energy> (1)
2.37944

>  <b_lp_Chiralities_Consistent> (1)
1

$$$$
