12523_Phytane
                    3D
 Schrodinger Suite 2021-3.
 62 61  0  0  1  0            999 V2000
   -4.7865   -2.1108    4.0383 C   0  0  0  0  0  0
   -4.3910   -1.4598    2.7080 C   0  0  0  0  0  0
   -4.6877    0.0511    2.6174 C   0  0  0  0  0  0
   -6.1894    0.3444    2.7593 C   0  0  0  0  0  0
   -4.1509    0.6648    1.3074 C   0  0  0  0  0  0
   -2.6239    0.6520    1.1596 C   0  0  0  0  0  0
   -2.1423    1.3412   -0.1240 C   0  0  0  0  0  0
   -0.6109    1.4629   -0.2674 C   0  0  0  0  0  0
   -0.2649    2.3521   -1.4719 C   0  0  0  0  0  0
    0.0683    0.0823   -0.3616 C   0  0  0  0  0  0
    1.6026    0.1067   -0.3311 C   0  0  0  0  0  0
    2.2070   -1.3040   -0.2904 C   0  0  0  0  0  0
    3.7289   -1.3576   -0.0542 C   0  0  0  0  0  0
    4.5068   -0.6080   -1.1470 C   0  0  0  0  0  0
    4.2421   -2.8078    0.0564 C   0  0  0  0  0  0
    3.6352   -3.6345    1.1983 C   0  0  0  0  0  0
    4.3233   -4.9943    1.3751 C   0  0  0  0  0  0
    3.6460   -5.9395    2.3855 C   0  0  0  0  0  0
    3.5981   -5.3447    3.8008 C   0  0  0  0  0  0
    4.3495   -7.3042    2.4003 C   0  0  0  0  0  0
   -4.4661   -3.1571    4.0729 H   0  0  0  0  0  0
   -5.8687   -2.0948    4.1989 H   0  0  0  0  0  0
   -4.3179   -1.5922    4.8830 H   0  0  0  0  0  0
   -3.3198   -1.6272    2.5483 H   0  0  0  0  0  0
   -4.9052   -1.9694    1.8801 H   0  0  0  0  0  0
   -4.1660    0.5436    3.4537 H   0  0  0  0  0  0
   -6.7575   -0.1560    1.9650 H   0  0  0  0  0  0
   -6.3891    1.4187    2.6835 H   0  0  0  0  0  0
   -6.5873    0.0030    3.7193 H   0  0  0  0  0  0
   -4.6059    0.1395    0.4542 H   0  0  0  0  0  0
   -4.4993    1.7048    1.2392 H   0  0  0  0  0  0
   -2.1728    1.1512    2.0296 H   0  0  0  0  0  0
   -2.2620   -0.3811    1.1795 H   0  0  0  0  0  0
   -2.5425    0.8063   -0.9984 H   0  0  0  0  0  0
   -2.5773    2.3497   -0.1646 H   0  0  0  0  0  0
   -0.2323    1.9588    0.6405 H   0  0  0  0  0  0
   -0.5970    1.8822   -2.4061 H   0  0  0  0  0  0
    0.8106    2.5337   -1.5547 H   0  0  0  0  0  0
   -0.7592    3.3269   -1.3969 H   0  0  0  0  0  0
   -0.2748   -0.5450    0.4700 H   0  0  0  0  0  0
   -0.2728   -0.4198   -1.2797 H   0  0  0  0  0  0
    1.9851    0.6502   -1.2015 H   0  0  0  0  0  0
    1.9359    0.6687    0.5540 H   0  0  0  0  0  0
    1.7032   -1.8668    0.5050 H   0  0  0  0  0  0
    1.9729   -1.8296   -1.2287 H   0  0  0  0  0  0
    3.9318   -0.8607    0.9079 H   0  0  0  0  0  0
    4.2953   -1.0365   -2.1347 H   0  0  0  0  0  0
    5.5871   -0.6782   -0.9794 H   0  0  0  0  0  0
    4.2470    0.4539   -1.1822 H   0  0  0  0  0  0
    4.0670   -3.3237   -0.8996 H   0  0  0  0  0  0
    5.3332   -2.7798    0.1863 H   0  0  0  0  0  0
    3.7008   -3.0565    2.1295 H   0  0  0  0  0  0
    2.5657   -3.8016    1.0166 H   0  0  0  0  0  0
    4.3648   -5.4983    0.3989 H   0  0  0  0  0  0
    5.3694   -4.8374    1.6782 H   0  0  0  0  0  0
    2.6096   -6.0963    2.0492 H   0  0  0  0  0  0
    4.6109   -5.1241    4.1611 H   0  0  0  0  0  0
    3.1405   -6.0469    4.5062 H   0  0  0  0  0  0
    3.0208   -4.4161    3.8377 H   0  0  0  0  0  0
    5.3892   -7.2008    2.7354 H   0  0  0  0  0  0
    4.3654   -7.7578    1.4032 H   0  0  0  0  0  0
    3.8502   -8.0031    3.0802 H   0  0  0  0  0  0
  1  2  1  0  0  0
  1 21  1  0  0  0
  1 22  1  0  0  0
  1 23  1  0  0  0
  2  3  1  0  0  0
  2 24  1  0  0  0
  2 25  1  0  0  0
  3  4  1  0  0  0
  3  5  1  0  0  0
  3 26  1  0  0  0
  4 27  1  0  0  0
  4 28  1  0  0  0
  4 29  1  0  0  0
  5  6  1  0  0  0
  5 30  1  0  0  0
  5 31  1  0  0  0
  6  7  1  0  0  0
  6 32  1  0  0  0
  6 33  1  0  0  0
  7  8  1  0  0  0
  7 34  1  0  0  0
  7 35  1  0  0  0
  8  9  1  0  0  0
  8 10  1  0  0  0
  8 36  1  0  0  0
  9 37  1  0  0  0
  9 38  1  0  0  0
  9 39  1  0  0  0
 10 11  1  0  0  0
 10 40  1  0  0  0
 10 41  1  0  0  0
 11 12  1  0  0  0
 11 42  1  0  0  0
 11 43  1  0  0  0
 12 13  1  0  0  0
 12 44  1  0  0  0
 12 45  1  0  0  0
 13 14  1  0  0  0
 13 15  1  0  0  0
 13 46  1  0  0  0
 14 47  1  0  0  0
 14 48  1  0  0  0
 14 49  1  0  0  0
 15 16  1  0  0  0
 15 50  1  0  0  0
 15 51  1  0  0  0
 16 17  1  0  0  0
 16 52  1  0  0  0
 16 53  1  0  0  0
 17 18  1  0  0  0
 17 54  1  0  0  0
 17 55  1  0  0  0
 18 19  1  0  0  0
 18 20  1  0  0  0
 18 56  1  0  0  0
 19 57  1  0  0  0
 19 58  1  0  0  0
 19 59  1  0  0  0
 20 60  1  0  0  0
 20 61  1  0  0  0
 20 62  1  0  0  0
M  END
>  <i_m_Spin_multiplicity> (1)
1

>  <s_j_Task> (1)
Single Point

>  <s_j_QM_Method> (1)
DFT(b3lyp-d3)

>  <s_j_QM_Basis> (1)
cc-pvtz(-f)

>  <i_j_Number_of_canonical_orbitals> (1)
832

>  <i_j_Geometry_convergence_category> (1)
1

>  <r_j_Gas_Phase_Energy> (1)
-787.793235891302

>  <r_j_Final_Energy> (1)
-787.793235891302

>  <r_j_HOMO> (1)
-0.29568183393534

>  <r_j_LUMO> (1)
-0.011717426185844

>  <r_j_Polarizability> (1)
246.417381424222

>  <r_j_QM_Dipole_(debye)> (1)
0.113931820269942

>  <r_j_QM_Dipole_X_(debye)> (1)
0.00142634221185523

>  <r_j_QM_Dipole_Y_(debye)> (1)
0.0366268645920418

>  <r_j_QM_Dipole_Z_(debye)> (1)
0.107874454844849

>  <r_j_Lowest_Frequency_(cm-1)> (1)
26.4410375944283

>  <r_j_Highest_Frequency_(cm-1)> (1)
3060.01785034092

>  <r_j_2nd_Lowest_Frequency_(cm-1)> (1)
40.5481717260987

>  <i_j_Num_Negative_Frequencies> (1)
0

>  <r_j_Zero_Point_Energy_(kcal/mol)> (1)
367.756343569642

>  <r_j_Entropy_(cal/mol/K)_298.15K_1.00E+00atm> (1)
163.072582508211

>  <r_j_Enthalpy_(kcal/mol)_298.15K_1.00E+00atm> (1)
16.1999155793536

>  <r_j_Free_Energy_(kcal/mol)_298.15K_1.00E+00atm> (1)
-32.4201748954696

>  <r_j_Internal_Energy_(kcal/mol)_298.15K_1.00E+00atm> (1)
15.6074299905263

>  <r_j_Heat_Capacity_(cal/mol/K)_298.15K_1.00E+00atm> (1)
97.317912526268

>  <r_j_ln(Q)_298.15K_1.00E+00atm> (1)
54.7189256698039

>  <r_j_Total_Internal_Energy_(au)_298.15K_1.00E+00atm> (1)
-787.182306826661

>  <r_j_Total_Enthalpy_(au)_298.15K_1.00E+00atm> (1)
-787.181362640769

>  <r_j_Total_Free_Energy_(au)_298.15K_1.00E+00atm> (1)
-787.258843687349

>  <r_lp_tautomer_probability> (1)
1

>  <r_epik_Ionization_Penalty> (1)
  0.0000

>  <r_epik_Ionization_Penalty_Charging> (1)
  0.0000

>  <r_epik_Ionization_Penalty_Neutral> (1)
  0.0000

>  <r_epik_State_Penalty> (1)
  0.0000

>  <r_epik_Charging_Adjusted_Penalty> (1)
0

>  <i_epik_Tot_Q> (1)
0

>  <i_epik_Tot_abs_Q> (1)
0

>  <s_lp_Force_Field> (1)
S-OPLS

>  <r_lp_Energy> (1)
12.814001

>  <b_lp_Chiralities_Consistent> (1)
1

$$$$
