12534_n-Tricosane
                    3D
 Schrodinger Suite 2021-3.
 71 70  0  0  1  0            999 V2000
   -8.8646    8.1747   -0.9138 C   0  0  0  0  0  0
   -7.3398    8.0783   -1.0200 C   0  0  0  0  0  0
   -6.8239    6.6343   -0.9893 C   0  0  0  0  0  0
   -5.2960    6.5426   -1.0927 C   0  0  0  0  0  0
   -4.7360    5.1128   -1.1553 C   0  0  0  0  0  0
   -4.9665    4.2848    0.1177 C   0  0  0  0  0  0
   -4.3458    2.8784    0.0755 C   0  0  0  0  0  0
   -2.8120    2.8642    0.0368 C   0  0  0  0  0  0
   -2.2115    1.4538    0.0655 C   0  0  0  0  0  0
   -0.6797    1.4557    0.0050 C   0  0  0  0  0  0
   -0.0558    0.0557    0.0101 C   0  0  0  0  0  0
    1.4751    0.0830   -0.0677 C   0  0  0  0  0  0
    2.1113   -1.3128   -0.0942 C   0  0  0  0  0  0
    3.6484   -1.3072   -0.0928 C   0  0  0  0  0  0
    4.2823   -0.6782   -1.3408 C   0  0  0  0  0  0
    5.8139   -0.7422   -1.3392 C   0  0  0  0  0  0
    6.4503   -0.0998   -2.5771 C   0  0  0  0  0  0
    7.9823   -0.1464   -2.5682 C   0  0  0  0  0  0
    8.6214    0.4986   -3.8033 C   0  0  0  0  0  0
   10.1537    0.4583   -3.7842 C   0  0  0  0  0  0
   10.7999    1.1009   -5.0166 C   0  0  0  0  0  0
   12.3325    1.0611   -4.9898 C   0  0  0  0  0  0
   12.9722    1.7037   -6.2241 C   0  0  0  0  0  0
   -9.2055    9.2151   -0.9394 H   0  0  0  0  0  0
   -9.2238    7.7290    0.0210 H   0  0  0  0  0  0
   -9.3516    7.6437   -1.7399 H   0  0  0  0  0  0
   -7.0040    8.5622   -1.9474 H   0  0  0  0  0  0
   -6.8773    8.6437   -0.1994 H   0  0  0  0  0  0
   -7.1693    6.1524   -0.0651 H   0  0  0  0  0  0
   -7.2783    6.0679   -1.8154 H   0  0  0  0  0  0
   -4.9722    7.0882   -1.9896 H   0  0  0  0  0  0
   -4.8443    7.0696   -0.2397 H   0  0  0  0  0  0
   -5.1790    4.5845   -2.0123 H   0  0  0  0  0  0
   -3.6604    5.1737   -1.3598 H   0  0  0  0  0  0
   -4.5617    4.8329    0.9812 H   0  0  0  0  0  0
   -6.0440    4.1872    0.2979 H   0  0  0  0  0  0
   -4.6813    2.3150    0.9568 H   0  0  0  0  0  0
   -4.7361    2.3352   -0.7972 H   0  0  0  0  0  0
   -2.4554    3.3797   -0.8643 H   0  0  0  0  0  0
   -2.4247    3.4416    0.8890 H   0  0  0  0  0  0
   -2.5422    0.9319    0.9749 H   0  0  0  0  0  0
   -2.6085    0.8720   -0.7788 H   0  0  0  0  0  0
   -0.3558    1.9909   -0.8993 H   0  0  0  0  0  0
   -0.2840    2.0324    0.8534 H   0  0  0  0  0  0
   -0.3681   -0.4822    0.9167 H   0  0  0  0  0  0
   -0.4528   -0.5226   -0.8367 H   0  0  0  0  0  0
    1.7727    0.6454   -0.9622 H   0  0  0  0  0  0
    1.8729    0.6452    0.7898 H   0  0  0  0  0  0
    1.7563   -1.8803    0.7768 H   0  0  0  0  0  0
    1.7508   -1.8580   -0.9785 H   0  0  0  0  0  0
    4.0075   -0.7764    0.8008 H   0  0  0  0  0  0
    4.0089   -2.3403    0.0039 H   0  0  0  0  0  0
    3.8964   -1.1851   -2.2373 H   0  0  0  0  0  0
    3.9724    0.3712   -1.4293 H   0  0  0  0  0  0
    6.1961   -0.2453   -0.4358 H   0  0  0  0  0  0
    6.1362   -1.7908   -1.2660 H   0  0  0  0  0  0
    6.0755   -0.6014   -3.4809 H   0  0  0  0  0  0
    6.1197    0.9461   -2.6537 H   0  0  0  0  0  0
    8.3549    0.3552   -1.6635 H   0  0  0  0  0  0
    8.3140   -1.1919   -2.4916 H   0  0  0  0  0  0
    8.2548   -0.0063   -4.7086 H   0  0  0  0  0  0
    8.2860    1.5426   -3.8831 H   0  0  0  0  0  0
   10.5182    0.9638   -2.8784 H   0  0  0  0  0  0
   10.4882   -0.5859   -3.7020 H   0  0  0  0  0  0
   10.4394    0.5943   -5.9236 H   0  0  0  0  0  0
   10.4655    2.1450   -5.1012 H   0  0  0  0  0  0
   12.6906    1.5683   -4.0834 H   0  0  0  0  0  0
   12.6649    0.0175   -4.9039 H   0  0  0  0  0  0
   14.0655    1.6625   -6.1794 H   0  0  0  0  0  0
   12.6815    2.7566   -6.3157 H   0  0  0  0  0  0
   12.6564    1.1943   -7.1420 H   0  0  0  0  0  0
  1  2  1  0  0  0
  1 24  1  0  0  0
  1 25  1  0  0  0
  1 26  1  0  0  0
  2  3  1  0  0  0
  2 27  1  0  0  0
  2 28  1  0  0  0
  3  4  1  0  0  0
  3 29  1  0  0  0
  3 30  1  0  0  0
  4  5  1  0  0  0
  4 31  1  0  0  0
  4 32  1  0  0  0
  5  6  1  0  0  0
  5 33  1  0  0  0
  5 34  1  0  0  0
  6  7  1  0  0  0
  6 35  1  0  0  0
  6 36  1  0  0  0
  7  8  1  0  0  0
  7 37  1  0  0  0
  7 38  1  0  0  0
  8  9  1  0  0  0
  8 39  1  0  0  0
  8 40  1  0  0  0
  9 10  1  0  0  0
  9 41  1  0  0  0
  9 42  1  0  0  0
 10 11  1  0  0  0
 10 43  1  0  0  0
 10 44  1  0  0  0
 11 12  1  0  0  0
 11 45  1  0  0  0
 11 46  1  0  0  0
 12 13  1  0  0  0
 12 47  1  0  0  0
 12 48  1  0  0  0
 13 14  1  0  0  0
 13 49  1  0  0  0
 13 50  1  0  0  0
 14 15  1  0  0  0
 14 51  1  0  0  0
 14 52  1  0  0  0
 15 16  1  0  0  0
 15 53  1  0  0  0
 15 54  1  0  0  0
 16 17  1  0  0  0
 16 55  1  0  0  0
 16 56  1  0  0  0
 17 18  1  0  0  0
 17 57  1  0  0  0
 17 58  1  0  0  0
 18 19  1  0  0  0
 18 59  1  0  0  0
 18 60  1  0  0  0
 19 20  1  0  0  0
 19 61  1  0  0  0
 19 62  1  0  0  0
 20 21  1  0  0  0
 20 63  1  0  0  0
 20 64  1  0  0  0
 21 22  1  0  0  0
 21 65  1  0  0  0
 21 66  1  0  0  0
 22 23  1  0  0  0
 22 67  1  0  0  0
 22 68  1  0  0  0
 23 69  1  0  0  0
 23 70  1  0  0  0
 23 71  1  0  0  0
M  END
> <i_m_Spin_multiplicity>
1

> <s_j_Task>
Single Point

> <s_j_QM_Method>
DFT(b3lyp-d3)

> <s_j_QM_Basis>
cc-pvtz(-f)

> <i_j_Number_of_canonical_orbitals>
954

> <i_j_Geometry_convergence_category>
3

> <r_j_Gas_Phase_Energy>
-905.779915148465

> <r_j_Final_Energy>
-905.779915148465

> <r_j_HOMO>
-0.268447812485004

> <r_j_LUMO>
0.0363296577867965

> <r_j_Polarizability>
288.103019763939

> <r_j_QM_Dipole_(debye)>
0.0716215110792674

> <r_j_QM_Dipole_X_(debye)>
0.0451271407325419

> <r_j_QM_Dipole_Y_(debye)>
-0.0262072269547536

> <r_j_QM_Dipole_Z_(debye)>
0.0490546967570386

> <r_j_Lowest_Frequency_(cm-1)>
18.6339936412176

> <r_j_Highest_Frequency_(cm-1)>
3045.95610379198

> <r_j_2nd_Lowest_Frequency_(cm-1)>
32.9164753071991

> <i_j_Num_Negative_Frequencies>
0

> <r_j_Zero_Point_Energy_(kcal/mol)>
422.354601988421

> <r_j_Entropy_(cal/mol/K)_298.15K_1.00E+00atm>
181.527132874418

> <r_j_Enthalpy_(kcal/mol)_298.15K_1.00E+00atm>
18.4582984866406

> <r_j_Free_Energy_(kcal/mol)_298.15K_1.00E+00atm>
-35.664016179867

> <r_j_Internal_Energy_(kcal/mol)_298.15K_1.00E+00atm>
17.8658128978133

> <r_j_Heat_Capacity_(cal/mol/K)_298.15K_1.00E+00atm>
109.222778845509

> <r_j_ln(Q)_298.15K_1.00E+00atm>
60.1938964464232

> <r_j_Total_Internal_Energy_(au)_298.15K_1.00E+00atm>
-905.078379257881

> <r_j_Total_Enthalpy_(au)_298.15K_1.00E+00atm>
-905.077435071989

> <r_j_Total_Free_Energy_(au)_298.15K_1.00E+00atm>
-905.163684471008

> <r_lp_tautomer_probability>
1

> <r_epik_Ionization_Penalty>
  0.0000

> <r_epik_Ionization_Penalty_Charging>
  0.0000

> <r_epik_Ionization_Penalty_Neutral>
  0.0000

> <r_epik_State_Penalty>
  0.0000

> <r_epik_Charging_Adjusted_Penalty>
0

> <i_epik_Tot_Q>
0

> <i_epik_Tot_abs_Q>
0

> <s_lp_Force_Field>
S-OPLS

> <r_lp_Energy>
12.259733

> <b_lp_Chiralities_Consistent>
1

$$$$
