12564_3-methylbiphenyl
                    3D
 Schrodinger Suite 2021-3.
 25 26  0  0  1  0            999 V2000
   -0.0291   -0.0141   -0.0946 C   0  0  0  0  0  0
    1.4802   -0.0091   -0.0262 C   0  0  0  0  0  0
    2.2003    1.1870   -0.0388 C   0  0  0  0  0  0
    3.6040    1.2095    0.0165 C   0  0  0  0  0  0
    4.2877   -0.0127    0.0834 C   0  0  0  0  0  0
    3.5820   -1.2147    0.0940 C   0  0  0  0  0  0
    2.1903   -1.2157    0.0408 C   0  0  0  0  0  0
    4.3418    2.4973    0.0054 C   0  0  0  0  0  0
    5.5493    2.6310   -0.6993 C   0  0  0  0  0  0
    6.2420    3.8399   -0.7099 C   0  0  0  0  0  0
    5.7413    4.9434   -0.0179 C   0  0  0  0  0  0
    4.5423    4.8258    0.6864 C   0  0  0  0  0  0
    3.8515    3.6159    0.6991 C   0  0  0  0  0  0
   -0.4348    1.0008   -0.1280 H   0  0  0  0  0  0
   -0.4621   -0.5204    0.7758 H   0  0  0  0  0  0
   -0.3836   -0.5462   -0.9848 H   0  0  0  0  0  0
    1.6607    2.1272   -0.1174 H   0  0  0  0  0  0
    5.3713   -0.0195    0.1527 H   0  0  0  0  0  0
    4.1223   -2.1554    0.1535 H   0  0  0  0  0  0
    1.6473   -2.1576    0.0510 H   0  0  0  0  0  0
    5.9335    1.7855   -1.2624 H   0  0  0  0  0  0
    7.1708    3.9226   -1.2674 H   0  0  0  0  0  0
    6.2804    5.8862   -0.0274 H   0  0  0  0  0  0
    4.1475    5.6762    1.2352 H   0  0  0  0  0  0
    2.9331    3.5266    1.2718 H   0  0  0  0  0  0
  1  2  1  0  0  0
  1 14  1  0  0  0
  1 15  1  0  0  0
  1 16  1  0  0  0
  2  7  1  0  0  0
  2  3  2  0  0  0
  3  4  1  0  0  0
  3 17  1  0  0  0
  4  5  2  0  0  0
  4  8  1  0  0  0
  5  6  1  0  0  0
  5 18  1  0  0  0
  6  7  2  0  0  0
  6 19  1  0  0  0
  7 20  1  0  0  0
  8 13  1  0  0  0
  8  9  2  0  0  0
  9 10  1  0  0  0
  9 21  1  0  0  0
 10 11  2  0  0  0
 10 22  1  0  0  0
 11 12  1  0  0  0
 11 23  1  0  0  0
 12 13  2  0  0  0
 12 24  1  0  0  0
 13 25  1  0  0  0
M  END
>  <i_m_Spin_multiplicity> (1)
1

>  <s_j_Task> (1)
Single Point

>  <s_j_QM_Method> (1)
DFT(b3lyp-d3)

>  <s_j_QM_Basis> (1)
cc-pvtz(-f)

>  <i_j_Number_of_canonical_orbitals> (1)
397

>  <i_j_Geometry_convergence_category> (1)
0

>  <r_j_Gas_Phase_Energy> (1)
-502.796176685914

>  <r_j_Final_Energy> (1)
-502.796176685914

>  <r_j_HOMO> (1)
-0.218298869890202

>  <r_j_LUMO> (1)
-0.0284969367237101

>  <r_j_Polarizability> (1)
149.756561233156

>  <r_j_QM_Dipole_(debye)> (1)
0.416761893675201

>  <r_j_QM_Dipole_X_(debye)> (1)
-0.402839144746056

>  <r_j_QM_Dipole_Y_(debye)> (1)
-0.10529752847835

>  <r_j_QM_Dipole_Z_(debye)> (1)
-0.0179869390491124

>  <r_j_Lowest_Frequency_(cm-1)> (1)
87.7706327096372

>  <r_j_Highest_Frequency_(cm-1)> (1)
3148.68388158175

>  <r_j_2nd_Lowest_Frequency_(cm-1)> (1)
111.609959110961

>  <i_j_Num_Negative_Frequencies> (1)
0

>  <r_j_Zero_Point_Energy_(kcal/mol)> (1)
130.58242715632

>  <r_j_Entropy_(cal/mol/K)_298.15K_1.00E+00atm> (1)
98.6183220177918

>  <r_j_Enthalpy_(kcal/mol)_298.15K_1.00E+00atm> (1)
7.00507208475597

>  <r_j_Free_Energy_(kcal/mol)_298.15K_1.00E+00atm> (1)
-22.3979806248486

>  <r_j_Internal_Energy_(kcal/mol)_298.15K_1.00E+00atm> (1)
6.41258649592869

>  <r_j_Heat_Capacity_(cal/mol/K)_298.15K_1.00E+00atm> (1)
41.8392344812291

>  <r_j_ln(Q)_298.15K_1.00E+00atm> (1)
37.8034184243733

>  <r_j_Total_Internal_Energy_(au)_298.15K_1.00E+00atm> (1)
-502.577861233794

>  <r_j_Total_Enthalpy_(au)_298.15K_1.00E+00atm> (1)
-502.576917047902

>  <r_j_Total_Free_Energy_(au)_298.15K_1.00E+00atm> (1)
-502.623773795274

>  <r_lp_tautomer_probability> (1)
1

>  <r_epik_Ionization_Penalty> (1)
  0.0000

>  <r_epik_Ionization_Penalty_Charging> (1)
  0.0000

>  <r_epik_Ionization_Penalty_Neutral> (1)
  0.0000

>  <r_epik_State_Penalty> (1)
  0.0000

>  <r_epik_Charging_Adjusted_Penalty> (1)
0

>  <i_epik_Tot_Q> (1)
0

>  <i_epik_Tot_abs_Q> (1)
0

>  <s_lp_Force_Field> (1)
S-OPLS

>  <r_lp_Energy> (1)
19.9068

>  <b_lp_Chiralities_Consistent> (1)
1

$$$$
