12580_p-Propylphenol
                    3D
 Schrodinger Suite 2021-3.
 22 22  0  0  1  0            999 V2000
   -0.5736    1.4733    0.0129 C   0  0  0  0  0  0
   -0.0251    0.0445    0.0000 C   0  0  0  0  0  0
    1.5156   -0.0045   -0.0118 C   0  0  0  0  0  0
    2.0535   -1.4175   -0.0150 C   0  0  0  0  0  0
    2.2761   -2.1097    1.1839 C   0  0  0  0  0  0
    2.7161   -3.4294    1.1951 C   0  0  0  0  0  0
    2.9448   -4.0930   -0.0138 C   0  0  0  0  0  0
    2.7313   -3.4234   -1.2218 C   0  0  0  0  0  0
    2.2898   -2.1002   -1.2126 C   0  0  0  0  0  0
    3.3790   -5.3898    0.0522 O   0  0  0  0  0  0
   -1.6683    1.4828    0.0207 H   0  0  0  0  0  0
   -0.2410    2.0320   -0.8695 H   0  0  0  0  0  0
   -0.2288    2.0206    0.8979 H   0  0  0  0  0  0
   -0.3896   -0.5067    0.8762 H   0  0  0  0  0  0
   -0.4029   -0.4967   -0.8768 H   0  0  0  0  0  0
    1.8830    0.5383   -0.8924 H   0  0  0  0  0  0
    1.8951    0.5371    0.8644 H   0  0  0  0  0  0
    2.1019   -1.6026    2.1301 H   0  0  0  0  0  0
    2.8914   -3.9609    2.1245 H   0  0  0  0  0  0
    2.9132   -3.9336   -2.1655 H   0  0  0  0  0  0
    2.1280   -1.5904   -2.1594 H   0  0  0  0  0  0
    3.4977   -5.7295   -0.8441 H   0  0  0  0  0  0
  1  2  1  0  0  0
  1 11  1  0  0  0
  1 12  1  0  0  0
  1 13  1  0  0  0
  2  3  1  0  0  0
  2 14  1  0  0  0
  2 15  1  0  0  0
  3  4  1  0  0  0
  3 16  1  0  0  0
  3 17  1  0  0  0
  4  9  1  0  0  0
  4  5  2  0  0  0
  5  6  1  0  0  0
  5 18  1  0  0  0
  6  7  2  0  0  0
  6 19  1  0  0  0
  7  8  1  0  0  0
  7 10  1  0  0  0
  8  9  2  0  0  0
  8 20  1  0  0  0
  9 21  1  0  0  0
 10 22  1  0  0  0
M  END
> <i_m_Spin_multiplicity>
1

> <s_j_Task>
Single Point

> <s_j_QM_Method>
DFT(b3lyp-d3)

> <s_j_QM_Basis>
cc-pvtz(-f)

> <i_j_Number_of_canonical_orbitals>
332

> <i_j_Geometry_convergence_category>
3

> <r_j_Gas_Phase_Energy>
-425.572557977609

> <r_j_Final_Energy>
-425.572557977609

> <r_j_HOMO>
-0.235229352577957

> <r_j_LUMO>
-0.0278376332033055

> <r_j_Polarizability>
108.065652187653

> <r_j_QM_Dipole_(debye)>
1.28747012111576

> <r_j_QM_Dipole_X_(debye)>
-0.175131957004691

> <r_j_QM_Dipole_Y_(debye)>
0.155749245665394

> <r_j_QM_Dipole_Z_(debye)>
-1.26595824689292

> <r_j_Lowest_Frequency_(cm-1)>
80.219889713607

> <r_j_Highest_Frequency_(cm-1)>
3773.43837562478

> <r_j_2nd_Lowest_Frequency_(cm-1)>
87.1294542741054

> <i_j_Num_Negative_Frequencies>
0

> <r_j_Zero_Point_Energy_(kcal/mol)>
118.475180906147

> <r_j_Entropy_(cal/mol/K)_298.15K_1.00E+00atm>
93.8089361103043

> <r_j_Enthalpy_(kcal/mol)_298.15K_1.00E+00atm>
6.47095447336919

> <r_j_Free_Energy_(kcal/mol)_298.15K_1.00E+00atm>
-21.498179827918

> <r_j_Internal_Energy_(kcal/mol)_298.15K_1.00E+00atm>
5.87846888454191

> <r_j_Heat_Capacity_(cal/mol/K)_298.15K_1.00E+00atm>
36.8458879090337

> <r_j_ln(Q)_298.15K_1.00E+00atm>
36.2847303517881

> <r_j_Total_Internal_Energy_(au)_298.15K_1.00E+00atm>
-425.374387821244

> <r_j_Total_Enthalpy_(au)_298.15K_1.00E+00atm>
-425.373443635352

> <r_j_Total_Free_Energy_(au)_298.15K_1.00E+00atm>
-425.418015288272

> <r_lp_tautomer_probability>
0.999999999997365

> <r_epik_Ionization_Penalty>
  0.0004

> <r_epik_Ionization_Penalty_Charging>
  0.0000

> <r_epik_Ionization_Penalty_Neutral>
  0.0004

> <r_epik_State_Penalty>
  0.0003

> <r_epik_Charging_Adjusted_Penalty>
0.000275476837645506

> <i_epik_Tot_Q>
0

> <i_epik_Tot_abs_Q>
0

> <s_lp_Force_Field>
S-OPLS

> <r_lp_Energy>
7.225954

> <b_lp_Chiralities_Consistent>
1

$$$$
