12679_Hexamethylphosphoramide
                    3D
 Schrodinger Suite 2021-3.
 29 28  0  0  1  0            999 V2000
   -0.2938    1.5607    0.0095 C   0  0  0  0  0  0
    0.3472    0.3696   -0.5165 N   0  0  0  0  0  0
   -0.5340   -0.5648   -1.2067 C   0  0  0  0  0  0
    1.9266   -0.1120   -0.1936 P   0  0  1  0  0  0
    2.5682   -0.7858   -1.3577 O   0  0  0  0  0  0
    2.7511    1.2743    0.2860 N   0  0  0  0  0  0
    2.8831    1.7442    1.6527 C   0  0  0  0  0  0
    3.2020    2.2026   -0.7438 C   0  0  0  0  0  0
    1.8483   -1.1032    1.1637 N   0  0  0  0  0  0
    0.7759   -1.1091    2.1414 C   0  0  0  0  0  0
    3.0255   -1.8868    1.5181 C   0  0  0  0  0  0
   -1.0450    1.3279    0.7817 H   0  0  0  0  0  0
   -0.8066    2.1014   -0.7975 H   0  0  0  0  0  0
    0.4468    2.2312    0.4463 H   0  0  0  0  0  0
   -1.2640   -1.0263   -0.5233 H   0  0  0  0  0  0
    0.0653   -1.3485   -1.6727 H   0  0  0  0  0  0
   -1.0897   -0.0439   -1.9970 H   0  0  0  0  0  0
    2.2645    2.6341    1.8536 H   0  0  0  0  0  0
    3.9274    2.0146    1.8597 H   0  0  0  0  0  0
    2.5926    0.9620    2.3546 H   0  0  0  0  0  0
    2.5740    3.1061   -0.7900 H   0  0  0  0  0  0
    3.1823    1.7030   -1.7135 H   0  0  0  0  0  0
    4.2345    2.5159   -0.5418 H   0  0  0  0  0  0
    1.0792   -0.6588    3.1005 H   0  0  0  0  0  0
    0.4571   -2.1400    2.3467 H   0  0  0  0  0  0
   -0.0869   -0.5589    1.7648 H   0  0  0  0  0  0
    3.5520   -1.4693    2.3905 H   0  0  0  0  0  0
    3.7087   -1.9162    0.6680 H   0  0  0  0  0  0
    2.7336   -2.9176    1.7577 H   0  0  0  0  0  0
  1  2  1  0  0  0
  1 12  1  0  0  0
  1 13  1  0  0  0
  1 14  1  0  0  0
  2  3  1  0  0  0
  2  4  1  0  0  0
  3 15  1  0  0  0
  3 16  1  0  0  0
  3 17  1  0  0  0
  4  5  2  0  0  0
  4  6  1  0  0  0
  4  9  1  0  0  0
  6  7  1  0  0  0
  6  8  1  0  0  0
  7 18  1  0  0  0
  7 19  1  0  0  0
  7 20  1  0  0  0
  8 21  1  0  0  0
  8 22  1  0  0  0
  8 23  1  0  0  0
  9 10  1  0  0  0
  9 11  1  0  0  0
 10 24  1  0  0  0
 10 25  1  0  0  0
 10 26  1  0  0  0
 11 27  1  0  0  0
 11 28  1  0  0  0
 11 29  1  0  0  0
M  END
>  <i_m_Spin_multiplicity> (1)
1

>  <s_j_Task> (1)
Single Point

>  <s_j_QM_Method> (1)
DFT(b3lyp-d3)

>  <s_j_QM_Basis> (1)
cc-pvtz(-f)

>  <i_j_Number_of_canonical_orbitals> (1)
419

>  <i_j_Geometry_convergence_category> (1)
0

>  <r_j_Gas_Phase_Energy> (1)
-820.573661087455

>  <r_j_Final_Energy> (1)
-820.573661087455

>  <r_j_HOMO> (1)
-0.230493968438477

>  <r_j_LUMO> (1)
0.00899208372156192

>  <r_j_Polarizability> (1)
121.561125970852

>  <r_j_QM_Dipole_(debye)> (1)
4.16472524940361

>  <r_j_QM_Dipole_X_(debye)> (1)
-1.79736385836077

>  <r_j_QM_Dipole_Y_(debye)> (1)
1.88085927880873

>  <r_j_QM_Dipole_Z_(debye)> (1)
3.25219740129616

>  <r_j_Lowest_Frequency_(cm-1)> (1)
76.7803098227387

>  <r_j_Highest_Frequency_(cm-1)> (1)
3097.05356083536

>  <r_j_2nd_Lowest_Frequency_(cm-1)> (1)
77.1905998422741

>  <i_j_Num_Negative_Frequencies> (1)
0

>  <r_j_Zero_Point_Energy_(kcal/mol)> (1)
159.464371679277

>  <r_j_Entropy_(cal/mol/K)_298.15K_1.00E+00atm> (1)
114.949622256617

>  <r_j_Enthalpy_(kcal/mol)_298.15K_1.00E+00atm> (1)
9.69694767694614

>  <r_j_Free_Energy_(kcal/mol)_298.15K_1.00E+00atm> (1)
-24.5752821988643

>  <r_j_Internal_Energy_(kcal/mol)_298.15K_1.00E+00atm> (1)
9.10446208811887

>  <r_j_Heat_Capacity_(cal/mol/K)_298.15K_1.00E+00atm> (1)
53.3933876295176

>  <r_j_ln(Q)_298.15K_1.00E+00atm> (1)
41.4782783957783

>  <r_j_Total_Internal_Energy_(au)_298.15K_1.00E+00atm> (1)
-820.305029549882

>  <r_j_Total_Enthalpy_(au)_298.15K_1.00E+00atm> (1)
-820.30408536399

>  <r_j_Total_Free_Energy_(au)_298.15K_1.00E+00atm> (1)
-820.358701639145

>  <r_lp_tautomer_probability> (1)
1

>  <r_epik_Ionization_Penalty> (1)
  0.0000

>  <r_epik_Ionization_Penalty_Charging> (1)
  0.0000

>  <r_epik_Ionization_Penalty_Neutral> (1)
  0.0000

>  <r_epik_State_Penalty> (1)
  0.0000

>  <r_epik_Charging_Adjusted_Penalty> (1)
0

>  <i_epik_Tot_Q> (1)
0

>  <i_epik_Tot_abs_Q> (1)
0

>  <s_lp_Force_Field> (1)
S-OPLS

>  <r_lp_Energy> (1)
8.56825

>  <b_lp_Chiralities_Consistent> (1)
1

$$$$
