12721_4,4-dimethyl-2-pentene
                    3D
 Schrodinger Suite 2021-3.
 21 20  0  0  1  0            999 V2000
   -0.1169   -0.0050   -0.0001 C   0  0  0  0  0  0
    1.3954   -0.0037   -0.0003 C   0  0  0  0  0  0
    2.1532   -1.1019    0.0002 C   0  0  0  0  0  0
    3.6814   -1.1331    0.0001 C   0  0  0  0  0  0
    4.1547   -2.5992   -0.0002 C   0  0  0  0  0  0
    4.2301   -0.4276    1.2596 C   0  0  0  0  0  0
    4.2301   -0.4271   -1.2593 C   0  0  0  0  0  0
   -0.5197    1.0117   -0.0011 H   0  0  0  0  0  0
   -0.5193   -0.5161    0.8824 H   0  0  0  0  0  0
   -0.5196   -0.5180   -0.8813 H   0  0  0  0  0  0
    1.8816    0.9721   -0.0010 H   0  0  0  0  0  0
    1.6544   -2.0732    0.0009 H   0  0  0  0  0  0
    5.2486   -2.6572   -0.0004 H   0  0  0  0  0  0
    3.7894   -3.1306   -0.8862 H   0  0  0  0  0  0
    3.7897   -3.1309    0.8858 H   0  0  0  0  0  0
    3.8589   -0.9081    2.1707 H   0  0  0  0  0  0
    3.9253    0.6233    1.2886 H   0  0  0  0  0  0
    5.3259   -0.4623    1.2767 H   0  0  0  0  0  0
    5.3259   -0.4620   -1.2764 H   0  0  0  0  0  0
    3.9253    0.6237   -1.2880 H   0  0  0  0  0  0
    3.8588   -0.9075   -2.1704 H   0  0  0  0  0  0
  1  2  1  0  0  0
  1  8  1  0  0  0
  1  9  1  0  0  0
  1 10  1  0  0  0
  2  3  2  0  0  0
  2 11  1  0  0  0
  3  4  1  0  0  0
  3 12  1  0  0  0
  4  5  1  0  0  0
  4  6  1  0  0  0
  4  7  1  0  0  0
  5 13  1  0  0  0
  5 14  1  0  0  0
  5 15  1  0  0  0
  6 16  1  0  0  0
  6 17  1  0  0  0
  6 18  1  0  0  0
  7 19  1  0  0  0
  7 20  1  0  0  0
  7 21  1  0  0  0
M  END
>  <i_m_Spin_multiplicity> (1)
1

>  <s_j_Task> (1)
Single Point

>  <s_j_QM_Method> (1)
DFT(b3lyp-d3)

>  <s_j_QM_Basis> (1)
cc-pvtz(-f)

>  <i_j_Number_of_canonical_orbitals> (1)
285

>  <i_j_Geometry_convergence_category> (1)
0

>  <r_j_Gas_Phase_Energy> (1)
-275.273339815534

>  <r_j_Final_Energy> (1)
-275.273339815534

>  <r_j_HOMO> (1)
-0.246574330773017

>  <r_j_LUMO> (1)
-0.000713717093211777

>  <r_j_Polarizability> (1)
86.2781503301506

>  <r_j_QM_Dipole_(debye)> (1)
0.168944638850196

>  <r_j_QM_Dipole_X_(debye)> (1)
-0.162029773660802

>  <r_j_QM_Dipole_Y_(debye)> (1)
0.0478392836712

>  <r_j_QM_Dipole_Z_(debye)> (1)
0.000215363596926312

>  <r_j_Lowest_Frequency_(cm-1)> (1)
-126.707710096618

>  <r_j_Highest_Frequency_(cm-1)> (1)
3086.28898709615

>  <r_j_2nd_Lowest_Frequency_(cm-1)> (1)
134.096158634758

>  <i_j_Num_Negative_Frequencies> (1)
1

>  <r_j_Zero_Point_Energy_(kcal/mol)> (1)
120.175045245801

>  <r_j_Entropy_(cal/mol/K)_298.15K_1.00E+00atm> (1)
86.0842808565485

>  <r_j_Enthalpy_(kcal/mol)_298.15K_1.00E+00atm> (1)
5.76508064726058

>  <r_j_Free_Energy_(kcal/mol)_298.15K_1.00E+00atm> (1)
-19.9009476901194

>  <r_j_Internal_Energy_(kcal/mol)_298.15K_1.00E+00atm> (1)
5.17259505843331

>  <r_j_Heat_Capacity_(cal/mol/K)_298.15K_1.00E+00atm> (1)
31.7926188364225

>  <r_j_ln(Q)_298.15K_1.00E+00atm> (1)
33.5889143388448

>  <r_j_Total_Internal_Energy_(au)_298.15K_1.00E+00atm> (1)
-275.073585634447

>  <r_j_Total_Enthalpy_(au)_298.15K_1.00E+00atm> (1)
-275.072641448554

>  <r_j_Total_Free_Energy_(au)_298.15K_1.00E+00atm> (1)
-275.113542868476

>  <r_lp_tautomer_probability> (1)
1

>  <r_epik_Ionization_Penalty> (1)
  0.0000

>  <r_epik_Ionization_Penalty_Charging> (1)
  0.0000

>  <r_epik_Ionization_Penalty_Neutral> (1)
  0.0000

>  <r_epik_State_Penalty> (1)
  0.0000

>  <r_epik_Charging_Adjusted_Penalty> (1)
0

>  <i_epik_Tot_Q> (1)
0

>  <i_epik_Tot_abs_Q> (1)
0

>  <s_lp_Force_Field> (1)
S-OPLS

>  <r_lp_Energy> (1)
4.458514

>  <b_lp_Chiralities_Consistent> (1)
1

$$$$
