12741_2-decanone
                    3D
 Schrodinger Suite 2021-3.
 31 30  0  0  1  0            999 V2000
   -4.1663    3.0053   -0.1515 C   0  0  0  0  0  0
   -2.6375    2.9374   -0.0905 C   0  0  0  0  0  0
   -2.1010    1.5019   -0.0437 C   0  0  0  0  0  0
   -0.5715    1.4267    0.0176 C   0  0  0  0  0  0
   -0.0304   -0.0064    0.0641 C   0  0  0  0  0  0
    1.4996   -0.0745    0.1259 C   0  0  0  0  0  0
    2.0377   -1.5078    0.1710 C   0  0  0  0  0  0
    3.5634   -1.5684    0.2341 C   0  0  0  0  0  0
    4.1204   -2.9860    0.2779 C   0  0  0  0  0  0
    3.3950   -3.9628    0.2643 O   0  0  0  0  0  0
    5.6334   -3.1176    0.3385 C   0  0  0  0  0  0
   -4.5228    4.0401   -0.1840 H   0  0  0  0  0  0
   -4.6172    2.5241    0.7240 H   0  0  0  0  0  0
   -4.5481    2.4925   -1.0419 H   0  0  0  0  0  0
   -2.2109    3.4539   -0.9613 H   0  0  0  0  0  0
   -2.2795    3.4854    0.7919 H   0  0  0  0  0  0
   -2.5266    0.9833    0.8274 H   0  0  0  0  0  0
   -2.4578    0.9519   -0.9264 H   0  0  0  0  0  0
   -0.1474    1.9467   -0.8536 H   0  0  0  0  0  0
   -0.2163    1.9776    0.9005 H   0  0  0  0  0  0
   -0.4523   -0.5278    0.9350 H   0  0  0  0  0  0
   -0.3829   -0.5585   -0.8186 H   0  0  0  0  0  0
    1.9209    0.4490   -0.7447 H   0  0  0  0  0  0
    1.8514    0.4782    1.0093 H   0  0  0  0  0  0
    1.6239   -2.0385    1.0365 H   0  0  0  0  0  0
    1.6948   -2.0667   -0.7077 H   0  0  0  0  0  0
    4.0141   -1.0534   -0.6276 H   0  0  0  0  0  0
    3.9427   -1.0281    1.1145 H   0  0  0  0  0  0
    6.0272   -2.6011    1.2215 H   0  0  0  0  0  0
    6.0921   -2.6452   -0.5379 H   0  0  0  0  0  0
    5.9111   -4.1720    0.3746 H   0  0  0  0  0  0
  1  2  1  0  0  0
  1 12  1  0  0  0
  1 13  1  0  0  0
  1 14  1  0  0  0
  2  3  1  0  0  0
  2 15  1  0  0  0
  2 16  1  0  0  0
  3  4  1  0  0  0
  3 17  1  0  0  0
  3 18  1  0  0  0
  4  5  1  0  0  0
  4 19  1  0  0  0
  4 20  1  0  0  0
  5  6  1  0  0  0
  5 21  1  0  0  0
  5 22  1  0  0  0
  6  7  1  0  0  0
  6 23  1  0  0  0
  6 24  1  0  0  0
  7  8  1  0  0  0
  7 25  1  0  0  0
  7 26  1  0  0  0
  8  9  1  0  0  0
  8 27  1  0  0  0
  8 28  1  0  0  0
  9 10  2  0  0  0
  9 11  1  0  0  0
 11 29  1  0  0  0
 11 30  1  0  0  0
 11 31  1  0  0  0
M  END
>  <i_m_Spin_multiplicity> (1)
1

>  <s_j_Task> (1)
Single Point

>  <s_j_QM_Method> (1)
DFT(b3lyp-d3)

>  <s_j_QM_Basis> (1)
cc-pvtz(-f)

>  <i_j_Number_of_canonical_orbitals> (1)
431

>  <i_j_Geometry_convergence_category> (1)
0

>  <r_j_Gas_Phase_Energy> (1)
-468.539262829396

>  <r_j_Final_Energy> (1)
-468.539262829396

>  <r_j_HOMO> (1)
-0.268396705902552

>  <r_j_LUMO> (1)
-0.0367342783746314

>  <r_j_Polarizability> (1)
125.84558967987

>  <r_j_QM_Dipole_(debye)> (1)
2.73442969520485

>  <r_j_QM_Dipole_X_(debye)> (1)
1.50597011544631

>  <r_j_QM_Dipole_Y_(debye)> (1)
2.28225153366527

>  <r_j_QM_Dipole_Z_(debye)> (1)
0.0220840775950568

>  <r_j_Lowest_Frequency_(cm-1)> (1)
51.009084899649

>  <r_j_Highest_Frequency_(cm-1)> (1)
3098.41570094377

>  <r_j_2nd_Lowest_Frequency_(cm-1)> (1)
65.7003654319627

>  <i_j_Num_Negative_Frequencies> (1)
0

>  <r_j_Zero_Point_Energy_(kcal/mol)> (1)
177.528395796804

>  <r_j_Entropy_(cal/mol/K)_298.15K_1.00E+00atm> (1)
113.350054884599

>  <r_j_Enthalpy_(kcal/mol)_298.15K_1.00E+00atm> (1)
9.04998382856463

>  <r_j_Free_Energy_(kcal/mol)_298.15K_1.00E+00atm> (1)
-24.7453350352787

>  <r_j_Internal_Energy_(kcal/mol)_298.15K_1.00E+00atm> (1)
8.45749823973736

>  <r_j_Heat_Capacity_(cal/mol/K)_298.15K_1.00E+00atm> (1)
49.7016303002785

>  <r_j_ln(Q)_298.15K_1.00E+00atm> (1)
41.7652943833755

>  <r_j_Total_Internal_Energy_(au)_298.15K_1.00E+00atm> (1)
-468.24287543936

>  <r_j_Total_Enthalpy_(au)_298.15K_1.00E+00atm> (1)
-468.241931253467

>  <r_j_Total_Free_Energy_(au)_298.15K_1.00E+00atm> (1)
-468.295787522543

>  <r_lp_tautomer_probability> (1)
1

>  <r_epik_Ionization_Penalty> (1)
  0.0000

>  <r_epik_Ionization_Penalty_Charging> (1)
  0.0000

>  <r_epik_Ionization_Penalty_Neutral> (1)
  0.0000

>  <r_epik_State_Penalty> (1)
  0.0000

>  <r_epik_Charging_Adjusted_Penalty> (1)
0

>  <i_epik_Tot_Q> (1)
0

>  <i_epik_Tot_abs_Q> (1)
0

>  <s_lp_Force_Field> (1)
S-OPLS

>  <r_lp_Energy> (1)
1.704689

>  <b_lp_Chiralities_Consistent> (1)
1

$$$$
