12756_5-ethyldihydro-2(3H)-furanone
                    3D
 Schrodinger Suite 2021-3.
 18 18  0  0  1  0            999 V2000
   -0.0438    0.0145    0.0261 C   0  0  0  0  0  0
    1.4868   -0.0216    0.0300 C   0  0  0  0  0  0
    2.0518   -1.4310   -0.0496 C   0  0  0  0  0  0
    3.5870   -1.5343   -0.0360 C   0  0  0  0  0  0
    3.8187   -2.8851    0.6437 C   0  0  0  0  0  0
    2.5924   -3.0401    1.5395 C   0  0  0  0  0  0
    2.4380   -3.7839    2.4720 O   0  0  0  0  0  0
    1.6219   -2.1778    1.1202 O   0  0  0  0  0  0
   -0.4135    1.0416    0.0973 H   0  0  0  0  0  0
   -0.4413   -0.5538    0.8712 H   0  0  0  0  0  0
   -0.4464   -0.4245   -0.8938 H   0  0  0  0  0  0
    1.8875    0.5470   -0.8195 H   0  0  0  0  0  0
    1.8759    0.4494    0.9413 H   0  0  0  0  0  0
    1.6421   -1.9495   -0.9293 H   0  0  0  0  0  0
    4.0120   -1.4579   -1.0394 H   0  0  0  0  0  0
    4.0037   -0.7239    0.5728 H   0  0  0  0  0  0
    3.8169   -3.7143   -0.0742 H   0  0  0  0  0  0
    4.7307   -2.9623    1.2376 H   0  0  0  0  0  0
  1  2  1  0  0  0
  1  9  1  0  0  0
  1 10  1  0  0  0
  1 11  1  0  0  0
  2  3  1  0  0  0
  2 12  1  0  0  0
  2 13  1  0  0  0
  3  8  1  0  0  0
  3  4  1  0  0  0
  3 14  1  0  0  0
  4  5  1  0  0  0
  4 15  1  0  0  0
  4 16  1  0  0  0
  5  6  1  0  0  0
  5 17  1  0  0  0
  5 18  1  0  0  0
  6  7  2  0  0  0
  6  8  1  0  0  0
M  END
>  <i_m_Spin_multiplicity> (1)
1

>  <s_j_Task> (1)
Single Point

>  <s_j_QM_Method> (1)
DFT(b3lyp-d3)

>  <s_j_QM_Basis> (1)
cc-pvtz(-f)

>  <i_j_Number_of_canonical_orbitals> (1)
273

>  <i_j_Geometry_convergence_category> (1)
0

>  <r_j_Gas_Phase_Energy> (1)
-385.274212350758

>  <r_j_Final_Energy> (1)
-385.274212350758

>  <r_j_HOMO> (1)
-0.295932713140824

>  <r_j_LUMO> (1)
-0.0190195393436616

>  <r_j_Polarizability> (1)
74.3605264747243

>  <r_j_QM_Dipole_(debye)> (1)
4.5335264031184

>  <r_j_QM_Dipole_X_(debye)> (1)
1.54718856830211

>  <r_j_QM_Dipole_Y_(debye)> (1)
2.43677215495202

>  <r_j_QM_Dipole_Z_(debye)> (1)
-3.49588481599972

>  <r_j_Lowest_Frequency_(cm-1)> (1)
119.476602548571

>  <r_j_Highest_Frequency_(cm-1)> (1)
3082.68465272053

>  <r_j_2nd_Lowest_Frequency_(cm-1)> (1)
148.78670732902

>  <i_j_Num_Negative_Frequencies> (1)
0

>  <r_j_Zero_Point_Energy_(kcal/mol)> (1)
96.7685901842615

>  <r_j_Entropy_(cal/mol/K)_298.15K_1.00E+00atm> (1)
85.1148115297871

>  <r_j_Enthalpy_(kcal/mol)_298.15K_1.00E+00atm> (1)
5.34029761548747

>  <r_j_Free_Energy_(kcal/mol)_298.15K_1.00E+00atm> (1)
-20.0366834421185

>  <r_j_Internal_Energy_(kcal/mol)_298.15K_1.00E+00atm> (1)
4.74781202666019

>  <r_j_Heat_Capacity_(cal/mol/K)_298.15K_1.00E+00atm> (1)
28.6339049035937

>  <r_j_ln(Q)_298.15K_1.00E+00atm> (1)
33.8180097878461

>  <r_j_Total_Internal_Energy_(au)_298.15K_1.00E+00atm> (1)
-385.112435665203

>  <r_j_Total_Enthalpy_(au)_298.15K_1.00E+00atm> (1)
-385.111491479311

>  <r_j_Total_Free_Energy_(au)_298.15K_1.00E+00atm> (1)
-385.151932273069

>  <r_lp_tautomer_probability> (1)
1

>  <r_epik_Ionization_Penalty> (1)
  0.0000

>  <r_epik_Ionization_Penalty_Charging> (1)
  0.0000

>  <r_epik_Ionization_Penalty_Neutral> (1)
  0.0000

>  <r_epik_State_Penalty> (1)
  0.0000

>  <r_epik_Charging_Adjusted_Penalty> (1)
0

>  <i_epik_Tot_Q> (1)
0

>  <i_epik_Tot_abs_Q> (1)
0

>  <s_lp_Force_Field> (1)
S-OPLS

>  <r_lp_Energy> (1)
-3.08917

>  <b_lp_Chiralities_Consistent> (1)
1

>  <s_epik_Chemistry_Notes> (1)
This compound has an ester and may undergo hydrolysis at high or low pH.

$$$$
