12763_Isopropylcyclohexane
                    3D
 Schrodinger Suite 2021-3.
 27 27  0  0  1  0            999 V2000
   -0.0634   -0.0312    0.0639 C   0  0  0  0  0  0
    1.4739    0.0163    0.0338 C   0  0  0  0  0  0
    1.9825    0.6944    1.3177 C   0  0  0  0  0  0
    2.0164    0.7018   -1.2481 C   0  0  0  0  0  0
    3.5594    0.7542   -1.2774 C   0  0  0  0  0  0
    4.1095    1.4069   -2.5548 C   0  0  0  0  0  0
    3.5858    0.7098   -3.8163 C   0  0  0  0  0  0
    2.0526    0.6809   -3.8139 C   0  0  0  0  0  0
    1.5002    0.0276   -2.5377 C   0  0  0  0  0  0
   -0.4839    0.9793   -0.0155 H   0  0  0  0  0  0
   -0.4184   -0.4632    1.0055 H   0  0  0  0  0  0
   -0.4809   -0.6320   -0.7478 H   0  0  0  0  0  0
    1.8439   -1.0211    0.0305 H   0  0  0  0  0  0
    1.7082    1.7568    1.3294 H   0  0  0  0  0  0
    3.0679    0.6278    1.4261 H   0  0  0  0  0  0
    1.5370    0.2288    2.2031 H   0  0  0  0  0  0
    1.6475    1.7416   -1.2447 H   0  0  0  0  0  0
    3.9409    1.2963   -0.4066 H   0  0  0  0  0  0
    3.9462   -0.2735   -1.2004 H   0  0  0  0  0  0
    3.8063    2.4636   -2.5765 H   0  0  0  0  0  0
    5.2061    1.3980   -2.5362 H   0  0  0  0  0  0
    3.9607    1.2099   -4.7173 H   0  0  0  0  0  0
    3.9674   -0.3210   -3.8453 H   0  0  0  0  0  0
    1.6741    1.7112   -3.8816 H   0  0  0  0  0  0
    1.6754    0.1521   -4.6975 H   0  0  0  0  0  0
    1.7916   -1.0337   -2.5187 H   0  0  0  0  0  0
    0.4065    0.0495   -2.5701 H   0  0  0  0  0  0
  1  2  1  0  0  0
  1 10  1  0  0  0
  1 11  1  0  0  0
  1 12  1  0  0  0
  2  3  1  0  0  0
  2  4  1  0  0  0
  2 13  1  0  0  0
  3 14  1  0  0  0
  3 15  1  0  0  0
  3 16  1  0  0  0
  4  9  1  0  0  0
  4  5  1  0  0  0
  4 17  1  0  0  0
  5  6  1  0  0  0
  5 18  1  0  0  0
  5 19  1  0  0  0
  6  7  1  0  0  0
  6 20  1  0  0  0
  6 21  1  0  0  0
  7  8  1  0  0  0
  7 22  1  0  0  0
  7 23  1  0  0  0
  8  9  1  0  0  0
  8 24  1  0  0  0
  8 25  1  0  0  0
  9 26  1  0  0  0
  9 27  1  0  0  0
M  END
>  <i_m_Spin_multiplicity> (1)
1

>  <s_j_Task> (1)
Single Point

>  <s_j_QM_Method> (1)
DFT(b3lyp-d3)

>  <s_j_QM_Basis> (1)
cc-pvtz(-f)

>  <i_j_Number_of_canonical_orbitals> (1)
365

>  <i_j_Geometry_convergence_category> (1)
0

>  <r_j_Gas_Phase_Energy> (1)
-353.960816640155

>  <r_j_Final_Energy> (1)
-353.960816640155

>  <r_j_HOMO> (1)
-0.275424003983917

>  <r_j_LUMO> (1)
0.0381730278745431

>  <r_j_Polarizability> (1)
105.413215288446

>  <r_j_QM_Dipole_(debye)> (1)
0.0701772506827677

>  <r_j_QM_Dipole_X_(debye)> (1)
0.04030818097563

>  <r_j_QM_Dipole_Y_(debye)> (1)
-0.0300673633183752

>  <r_j_QM_Dipole_Z_(debye)> (1)
-0.0489494711198059

>  <r_j_Lowest_Frequency_(cm-1)> (1)
87.185919758973

>  <r_j_Highest_Frequency_(cm-1)> (1)
3065.5069814219

>  <r_j_2nd_Lowest_Frequency_(cm-1)> (1)
137.826244354939

>  <i_j_Num_Negative_Frequencies> (1)
0

>  <r_j_Zero_Point_Energy_(kcal/mol)> (1)
159.479465035571

>  <r_j_Entropy_(cal/mol/K)_298.15K_1.00E+00atm> (1)
92.0518001253667

>  <r_j_Enthalpy_(kcal/mol)_298.15K_1.00E+00atm> (1)
6.44966907905532

>  <r_j_Free_Energy_(kcal/mol)_298.15K_1.00E+00atm> (1)
-20.9955751283227

>  <r_j_Internal_Energy_(kcal/mol)_298.15K_1.00E+00atm> (1)
5.85718349022805

>  <r_j_Heat_Capacity_(cal/mol/K)_298.15K_1.00E+00atm> (1)
38.0413075233735

>  <r_j_ln(Q)_298.15K_1.00E+00atm> (1)
35.4364317449138

>  <r_j_Total_Internal_Energy_(au)_298.15K_1.00E+00atm> (1)
-353.697335917664

>  <r_j_Total_Enthalpy_(au)_298.15K_1.00E+00atm> (1)
-353.696391731771

>  <r_j_Total_Free_Energy_(au)_298.15K_1.00E+00atm> (1)
-353.74012851268

>  <r_lp_tautomer_probability> (1)
1

>  <r_epik_Ionization_Penalty> (1)
  0.0000

>  <r_epik_Ionization_Penalty_Charging> (1)
  0.0000

>  <r_epik_Ionization_Penalty_Neutral> (1)
  0.0000

>  <r_epik_State_Penalty> (1)
  0.0000

>  <r_epik_Charging_Adjusted_Penalty> (1)
0

>  <i_epik_Tot_Q> (1)
0

>  <i_epik_Tot_abs_Q> (1)
0

>  <s_lp_Force_Field> (1)
S-OPLS

>  <r_lp_Energy> (1)
10.568681

>  <b_lp_Chiralities_Consistent> (1)
1

$$$$
