12784_Pentamethylbenzene
                    3D
 Schrodinger Suite 2021-3.
 27 27  0  0  1  0            999 V2000
   -0.0100    0.0212    0.0007 C   0  0  0  0  0  0
    1.5010   -0.0222    0.0001 C   0  0  0  0  0  0
    2.2226    1.1653   -0.0002 C   0  0  0  0  0  0
    3.6195    1.1880   -0.0002 C   0  0  0  0  0  0
    4.3189   -0.0288    0.0006 C   0  0  0  0  0  0
    3.6039   -1.2536    0.0000 C   0  0  0  0  0  0
    2.1941   -1.2533   -0.0002 C   0  0  0  0  0  0
    1.3540   -2.5151   -0.0006 C   0  0  0  0  0  0
    4.3984   -2.5480   -0.0008 C   0  0  0  0  0  0
    5.8372   -0.0058    0.0017 C   0  0  0  0  0  0
    4.3021    2.5415   -0.0010 C   0  0  0  0  0  0
   -0.3732    1.0524    0.0009 H   0  0  0  0  0  0
   -0.4325   -0.4805    0.8799 H   0  0  0  0  0  0
   -0.4333   -0.4804   -0.8782 H   0  0  0  0  0  0
    1.6833    2.1108   -0.0004 H   0  0  0  0  0  0
    1.9368   -3.4343   -0.0013 H   0  0  0  0  0  0
    0.6980   -2.5492   -0.8788 H   0  0  0  0  0  0
    0.6986   -2.5502    0.8781 H   0  0  0  0  0  0
    3.7683   -3.4350   -0.0008 H   0  0  0  0  0  0
    5.0463   -2.6187    0.8801 H   0  0  0  0  0  0
    5.0453   -2.6180   -0.8826 H   0  0  0  0  0  0
    6.2809   -0.9999    0.0035 H   0  0  0  0  0  0
    6.2254    0.5202    0.8816 H   0  0  0  0  0  0
    6.2260    0.5170   -0.8796 H   0  0  0  0  0  0
    5.3905    2.4817   -0.0017 H   0  0  0  0  0  0
    4.0056    3.1239    0.8791 H   0  0  0  0  0  0
    4.0044    3.1232   -0.8813 H   0  0  0  0  0  0
  1  2  1  0  0  0
  1 12  1  0  0  0
  1 13  1  0  0  0
  1 14  1  0  0  0
  2  7  1  0  0  0
  2  3  2  0  0  0
  3  4  1  0  0  0
  3 15  1  0  0  0
  4  5  2  0  0  0
  4 11  1  0  0  0
  5  6  1  0  0  0
  5 10  1  0  0  0
  6  7  2  0  0  0
  6  9  1  0  0  0
  7  8  1  0  0  0
  8 16  1  0  0  0
  8 17  1  0  0  0
  8 18  1  0  0  0
  9 19  1  0  0  0
  9 20  1  0  0  0
  9 21  1  0  0  0
 10 22  1  0  0  0
 10 23  1  0  0  0
 10 24  1  0  0  0
 11 25  1  0  0  0
 11 26  1  0  0  0
 11 27  1  0  0  0
M  END
>  <i_m_Spin_multiplicity> (1)
1

>  <s_j_Task> (1)
Single Point

>  <s_j_QM_Method> (1)
DFT(b3lyp-d3)

>  <s_j_QM_Basis> (1)
cc-pvtz(-f)

>  <i_j_Number_of_canonical_orbitals> (1)
389

>  <i_j_Geometry_convergence_category> (1)
0

>  <r_j_Gas_Phase_Energy> (1)
-428.982243431389

>  <r_j_Final_Energy> (1)
-428.982243431389

>  <r_j_HOMO> (1)
-0.221489391240585

>  <r_j_LUMO> (1)
0.000373860626244158

>  <r_j_Polarizability> (1)
129.686517577144

>  <r_j_QM_Dipole_(debye)> (1)
0.270423232593734

>  <r_j_QM_Dipole_X_(debye)> (1)
0.153334452591301

>  <r_j_QM_Dipole_Y_(debye)> (1)
-0.222748917985746

>  <r_j_QM_Dipole_Z_(debye)> (1)
-0.000435787964467181

>  <r_j_Lowest_Frequency_(cm-1)> (1)
90.9016224887531

>  <r_j_Highest_Frequency_(cm-1)> (1)
3120.16250075259

>  <r_j_2nd_Lowest_Frequency_(cm-1)> (1)
112.174205428907

>  <i_j_Num_Negative_Frequencies> (1)
0

>  <r_j_Zero_Point_Energy_(kcal/mol)> (1)
149.496753643761

>  <r_j_Entropy_(cal/mol/K)_298.15K_1.00E+00atm> (1)
103.190216546576

>  <r_j_Enthalpy_(kcal/mol)_298.15K_1.00E+00atm> (1)
7.98918112979998

>  <r_j_Free_Energy_(kcal/mol)_298.15K_1.00E+00atm> (1)
-22.7769819335617

>  <r_j_Internal_Energy_(kcal/mol)_298.15K_1.00E+00atm> (1)
7.39669554097271

>  <r_j_Heat_Capacity_(cal/mol/K)_298.15K_1.00E+00atm> (1)
46.0039079545629

>  <r_j_ln(Q)_298.15K_1.00E+00atm> (1)
38.4430986391498

>  <r_j_Total_Internal_Energy_(au)_298.15K_1.00E+00atm> (1)
-428.732217803593

>  <r_j_Total_Enthalpy_(au)_298.15K_1.00E+00atm> (1)
-428.7312736177

>  <r_j_Total_Free_Energy_(au)_298.15K_1.00E+00atm> (1)
-428.780302619706

>  <r_lp_tautomer_probability> (1)
1

>  <r_epik_Ionization_Penalty> (1)
  0.0000

>  <r_epik_Ionization_Penalty_Charging> (1)
  0.0000

>  <r_epik_Ionization_Penalty_Neutral> (1)
  0.0000

>  <r_epik_State_Penalty> (1)
  0.0000

>  <r_epik_Charging_Adjusted_Penalty> (1)
0

>  <i_epik_Tot_Q> (1)
0

>  <i_epik_Tot_abs_Q> (1)
0

>  <s_lp_Force_Field> (1)
S-OPLS

>  <r_lp_Energy> (1)
9.44347

>  <b_lp_Chiralities_Consistent> (1)
1

$$$$
