12968_Eptc
                    3D
 Schrodinger Suite 2021-3.
 31 30  0  0  1  0            999 V2000
   -0.3354    2.3239    1.1178 C   0  0  0  0  0  0
   -0.6672    1.3571   -0.0214 C   0  0  0  0  0  0
    0.0458    0.0004    0.0878 C   0  0  0  0  0  0
    1.5091    0.0903    0.0969 N   0  0  0  0  0  0
    2.2205    0.0279    1.3822 C   0  0  0  0  0  0
    2.6646   -1.3939    1.7435 C   0  0  0  0  0  0
    3.4122   -1.4381    3.0784 C   0  0  0  0  0  0
    2.2852    0.1018   -1.0257 C   0  0  0  0  0  0
    3.5080    0.1040   -1.0024 O   0  0  0  0  0  0
    1.3861    0.1212   -2.6144 S   0  0  0  0  0  0
    2.8571    0.0529   -3.7171 C   0  0  0  0  0  0
    2.4090    0.0462   -5.1768 C   0  0  0  0  0  0
   -0.8841    3.2641    1.0063 H   0  0  0  0  0  0
    0.7327    2.5630    1.1310 H   0  0  0  0  0  0
   -0.5984    1.8987    2.0938 H   0  0  0  0  0  0
   -1.7474    1.1634   -0.0477 H   0  0  0  0  0  0
   -0.4087    1.8144   -0.9826 H   0  0  0  0  0  0
   -0.2478   -0.5026    1.0160 H   0  0  0  0  0  0
   -0.2705   -0.6555   -0.7302 H   0  0  0  0  0  0
    3.0929    0.6839    1.3203 H   0  0  0  0  0  0
    1.5552    0.4306    2.1516 H   0  0  0  0  0  0
    1.7843   -2.0489    1.7798 H   0  0  0  0  0  0
    3.3066   -1.7613    0.9364 H   0  0  0  0  0  0
    3.7273   -2.4570    3.3234 H   0  0  0  0  0  0
    2.7839   -1.0768    3.9011 H   0  0  0  0  0  0
    4.3101   -0.8109    3.0461 H   0  0  0  0  0  0
    3.4848    0.9155   -3.4857 H   0  0  0  0  0  0
    3.4247   -0.8439   -3.4612 H   0  0  0  0  0  0
    3.2875    0.0064   -5.8288 H   0  0  0  0  0  0
    1.8427    0.9481   -5.4285 H   0  0  0  0  0  0
    1.7828   -0.8227   -5.4021 H   0  0  0  0  0  0
  1  2  1  0  0  0
  1 13  1  0  0  0
  1 14  1  0  0  0
  1 15  1  0  0  0
  2  3  1  0  0  0
  2 16  1  0  0  0
  2 17  1  0  0  0
  3  4  1  0  0  0
  3 18  1  0  0  0
  3 19  1  0  0  0
  4  5  1  0  0  0
  4  8  1  0  0  0
  5  6  1  0  0  0
  5 20  1  0  0  0
  5 21  1  0  0  0
  6  7  1  0  0  0
  6 22  1  0  0  0
  6 23  1  0  0  0
  7 24  1  0  0  0
  7 25  1  0  0  0
  7 26  1  0  0  0
  8  9  2  0  0  0
  8 10  1  0  0  0
 10 11  1  0  0  0
 11 12  1  0  0  0
 11 27  1  0  0  0
 11 28  1  0  0  0
 12 29  1  0  0  0
 12 30  1  0  0  0
 12 31  1  0  0  0
M  END
>  <i_m_Spin_multiplicity> (1)
1

>  <s_j_Task> (1)
Single Point

>  <s_j_QM_Method> (1)
DFT(b3lyp-d3)

>  <s_j_QM_Basis> (1)
cc-pvtz(-f)

>  <i_j_Number_of_canonical_orbitals> (1)
450

>  <i_j_Geometry_convergence_category> (1)
1

>  <r_j_Gas_Phase_Energy> (1)
-882.823660886442

>  <r_j_Final_Energy> (1)
-882.823660886442

>  <r_j_HOMO> (1)
-0.227417012923597

>  <r_j_LUMO> (1)
0.0147896583255173

>  <r_j_Polarizability> (1)
143.082590455486

>  <r_j_QM_Dipole_(debye)> (1)
2.01933211191641

>  <r_j_QM_Dipole_X_(debye)> (1)
-1.8352998749935

>  <r_j_QM_Dipole_Y_(debye)> (1)
-0.169272187337238

>  <r_j_QM_Dipole_Z_(debye)> (1)
0.825059678847369

>  <r_j_Lowest_Frequency_(cm-1)> (1)
61.0689404217303

>  <r_j_Highest_Frequency_(cm-1)> (1)
3085.43024547461

>  <r_j_2nd_Lowest_Frequency_(cm-1)> (1)
73.9820003144738

>  <i_j_Num_Negative_Frequencies> (1)
0

>  <r_j_Zero_Point_Energy_(kcal/mol)> (1)
172.075916250509

>  <r_j_Entropy_(cal/mol/K)_298.15K_1.00E+00atm> (1)
118.646823096601

>  <r_j_Enthalpy_(kcal/mol)_298.15K_1.00E+00atm> (1)
9.7567725958613

>  <r_j_Free_Energy_(kcal/mol)_298.15K_1.00E+00atm> (1)
-25.6177777103904

>  <r_j_Internal_Energy_(kcal/mol)_298.15K_1.00E+00atm> (1)
9.16428700703403

>  <r_j_Heat_Capacity_(cal/mol/K)_298.15K_1.00E+00atm> (1)
54.142435150776

>  <r_j_ln(Q)_298.15K_1.00E+00atm> (1)
43.237807287594

>  <r_j_Total_Internal_Energy_(au)_298.15K_1.00E+00atm> (1)
-882.534836236102

>  <r_j_Total_Enthalpy_(au)_298.15K_1.00E+00atm> (1)
-882.53389205021

>  <r_j_Total_Free_Energy_(au)_298.15K_1.00E+00atm> (1)
-882.590264984799

>  <r_lp_tautomer_probability> (1)
1

>  <r_epik_Ionization_Penalty> (1)
  0.0000

>  <r_epik_Ionization_Penalty_Charging> (1)
  0.0000

>  <r_epik_Ionization_Penalty_Neutral> (1)
  0.0000

>  <r_epik_State_Penalty> (1)
  0.0000

>  <r_epik_Charging_Adjusted_Penalty> (1)
0

>  <i_epik_Tot_Q> (1)
0

>  <i_epik_Tot_abs_Q> (1)
0

>  <s_lp_Force_Field> (1)
S-OPLS

>  <r_lp_Energy> (1)
10.6346

>  <b_lp_Chiralities_Consistent> (1)
1

$$$$
