129695190_Benzo[bjk]fluoranthene
                    3D
 Schrodinger Suite 2021-3.
 28 32  0  0  1  0            999 V2000
   -2.3762   -1.8715    2.7823 C   0  0  0  0  0  0
   -3.2984   -1.6426    1.7564 C   0  0  0  0  0  0
   -2.8773   -1.1585    0.5130 C   0  0  0  0  0  0
   -1.5229   -0.9220    0.3064 C   0  0  0  0  0  0
   -0.5772   -1.1508    1.3573 C   0  0  0  0  0  0
   -1.0129   -1.6204    2.5930 C   0  0  0  0  0  0
    0.7542   -0.7250    0.8788 C   0  0  0  0  0  0
    0.6210   -0.5231   -0.4985 C   0  0  0  0  0  0
   -0.7849   -0.3613   -0.8404 C   0  0  0  0  0  0
   -1.0502    0.7312   -1.6403 C   0  0  0  0  0  0
    0.0759    1.4002   -2.3056 C   0  0  0  0  0  0
    1.2690    0.6822   -2.5238 C   0  0  0  0  0  0
    1.5912    0.1405   -1.2650 C   0  0  0  0  0  0
    2.2601    1.1869   -0.5084 C   0  0  0  0  0  0
    1.7972    2.5058   -0.9884 C   0  0  0  0  0  0
    0.6310    2.6575   -1.7748 C   0  0  0  0  0  0
    2.5050    0.9413    0.8720 C   0  0  0  0  0  0
    1.8235   -0.0814    1.5442 C   0  0  0  0  0  0
   -2.7235   -2.2493    3.7397 H   0  0  0  0  0  0
   -4.3517   -1.8465    1.9256 H   0  0  0  0  0  0
   -3.5951   -0.9807   -0.2830 H   0  0  0  0  0  0
   -0.3045   -1.7927    3.3986 H   0  0  0  0  0  0
   -2.0166    1.2257   -1.5882 H   0  0  0  0  0  0
    2.0618    1.1631   -3.0923 H   0  0  0  0  0  0
    2.1615    3.3860   -0.4582 H   0  0  0  0  0  0
    0.0924    3.6028   -1.7376 H   0  0  0  0  0  0
    3.0996    1.6458    1.4471 H   0  0  0  0  0  0
    1.9655   -0.1996    2.6146 H   0  0  0  0  0  0
  1  6  1  0  0  0
  1  2  2  0  0  0
  1 19  1  0  0  0
  2  3  1  0  0  0
  2 20  1  0  0  0
  3  4  2  0  0  0
  3 21  1  0  0  0
  4  9  1  0  0  0
  4  5  1  0  0  0
  5  6  2  0  0  0
  5  7  1  0  0  0
  6 22  1  0  0  0
  7 18  1  0  0  0
  7  8  2  0  0  0
  8 13  1  0  0  0
  8  9  1  0  0  0
  9 10  2  0  0  0
 10 11  1  0  0  0
 10 23  1  0  0  0
 11 16  1  0  0  0
 11 12  2  0  0  0
 12 13  1  0  0  0
 12 24  1  0  0  0
 13 14  2  0  0  0
 14 15  1  0  0  0
 14 17  1  0  0  0
 15 16  2  0  0  0
 15 25  1  0  0  0
 16 26  1  0  0  0
 17 18  2  0  0  0
 17 27  1  0  0  0
 18 28  1  0  0  0
M  END
>  <i_m_Spin_multiplicity> (1)
1

>  <s_j_Task> (1)
Single Point

>  <s_j_QM_Method> (1)
DFT(b3lyp-d3)

>  <s_j_QM_Basis> (1)
cc-pvtz(-f)

>  <i_j_Number_of_canonical_orbitals> (1)
487

>  <i_j_Geometry_convergence_category> (1)
0

>  <r_j_Gas_Phase_Energy> (1)
-691.951102705768

>  <r_j_Final_Energy> (1)
-691.951102705768

>  <r_j_HOMO> (1)
-0.206852056960996

>  <r_j_LUMO> (1)
-0.0876802709997767

>  <r_j_Polarizability> (1)
208.569076164473

>  <r_j_QM_Dipole_(debye)> (1)
2.17835957864

>  <r_j_QM_Dipole_X_(debye)> (1)
-0.365926696262325

>  <r_j_QM_Dipole_Y_(debye)> (1)
1.96102165415683

>  <r_j_QM_Dipole_Z_(debye)> (1)
0.875066956719996

>  <r_j_Lowest_Frequency_(cm-1)> (1)
101.818744826189

>  <r_j_Highest_Frequency_(cm-1)> (1)
3146.48896407609

>  <r_j_2nd_Lowest_Frequency_(cm-1)> (1)
140.772281408865

>  <i_j_Num_Negative_Frequencies> (1)
0

>  <r_j_Zero_Point_Energy_(kcal/mol)> (1)
134.089183676783

>  <r_j_Entropy_(cal/mol/K)_298.15K_1.00E+00atm> (1)
101.364172760599

>  <r_j_Enthalpy_(kcal/mol)_298.15K_1.00E+00atm> (1)
7.48471195159468

>  <r_j_Free_Energy_(kcal/mol)_298.15K_1.00E+00atm> (1)
-22.737016156978

>  <r_j_Internal_Energy_(kcal/mol)_298.15K_1.00E+00atm> (1)
6.8922263627674

>  <r_j_Heat_Capacity_(cal/mol/K)_298.15K_1.00E+00atm> (1)
49.7212505132578

>  <r_j_ln(Q)_298.15K_1.00E+00atm> (1)
38.375644210996

>  <r_j_Total_Internal_Energy_(au)_298.15K_1.00E+00atm> (1)
-691.726434526593

>  <r_j_Total_Enthalpy_(au)_298.15K_1.00E+00atm> (1)
-691.725490340701

>  <r_j_Total_Free_Energy_(au)_298.15K_1.00E+00atm> (1)
-691.773651730375

>  <r_lp_tautomer_probability> (1)
1

>  <r_epik_Ionization_Penalty> (1)
  0.0000

>  <r_epik_Ionization_Penalty_Charging> (1)
  0.0000

>  <r_epik_Ionization_Penalty_Neutral> (1)
  0.0000

>  <r_epik_State_Penalty> (1)
  0.0000

>  <r_epik_Charging_Adjusted_Penalty> (1)
0

>  <i_epik_Tot_Q> (1)
0

>  <i_epik_Tot_abs_Q> (1)
0

>  <s_lp_Force_Field> (1)
S-OPLS

>  <r_lp_Energy> (1)
212.834

>  <b_lp_Chiralities_Consistent> (1)
1

$$$$
