12986_2-methyl-1-pentene
                    3D
 Schrodinger Suite 2021-3.
 18 17  0  0  1  0            999 V2000
   -0.6116    1.4113    0.0303 C   0  0  0  0  0  0
   -0.0343   -0.0038    0.1248 C   0  0  0  0  0  0
    1.4890   -0.0326   -0.1087 C   0  0  0  0  0  0
    2.0927   -1.4195   -0.0614 C   0  0  0  0  0  0
    2.6042   -1.9995   -1.1520 C   0  0  0  0  0  0
    2.0839   -2.1130    1.2792 C   0  0  0  0  0  0
   -1.6937    1.4149    0.1964 H   0  0  0  0  0  0
   -0.4237    1.8491   -0.9567 H   0  0  0  0  0  0
   -0.1568    2.0733    0.7763 H   0  0  0  0  0  0
   -0.2677   -0.4272    1.1093 H   0  0  0  0  0  0
   -0.5174   -0.6556   -0.6139 H   0  0  0  0  0  0
    1.7065    0.4303   -1.0790 H   0  0  0  0  0  0
    1.9697    0.5994    0.6534 H   0  0  0  0  0  0
    2.6117   -1.4963   -2.1151 H   0  0  0  0  0  0
    3.0330   -2.9975   -1.1218 H   0  0  0  0  0  0
    2.5873   -1.5001    2.0381 H   0  0  0  0  0  0
    2.5837   -3.0845    1.2375 H   0  0  0  0  0  0
    1.0610   -2.2762    1.6395 H   0  0  0  0  0  0
  1  2  1  0  0  0
  1  7  1  0  0  0
  1  8  1  0  0  0
  1  9  1  0  0  0
  2  3  1  0  0  0
  2 10  1  0  0  0
  2 11  1  0  0  0
  3  4  1  0  0  0
  3 12  1  0  0  0
  3 13  1  0  0  0
  4  5  2  0  0  0
  4  6  1  0  0  0
  5 14  1  0  0  0
  5 15  1  0  0  0
  6 16  1  0  0  0
  6 17  1  0  0  0
  6 18  1  0  0  0
M  END
>  <i_m_Spin_multiplicity> (1)
1

>  <s_j_Task> (1)
Single Point

>  <s_j_QM_Method> (1)
DFT(b3lyp-d3)

>  <s_j_QM_Basis> (1)
cc-pvtz(-f)

>  <i_j_Number_of_canonical_orbitals> (1)
244

>  <i_j_Geometry_convergence_category> (1)
0

>  <r_j_Gas_Phase_Energy> (1)
-235.948656921333

>  <r_j_Final_Energy> (1)
-235.948656921333

>  <r_j_HOMO> (1)
-0.254399499409623

>  <r_j_LUMO> (1)
0.00564756933672206

>  <r_j_Polarizability> (1)
74.1276155811618

>  <r_j_QM_Dipole_(debye)> (1)
0.563725214369432

>  <r_j_QM_Dipole_X_(debye)> (1)
-0.296238656437148

>  <r_j_QM_Dipole_Y_(debye)> (1)
0.198942740048313

>  <r_j_QM_Dipole_Z_(debye)> (1)
0.436406418296346

>  <r_j_Lowest_Frequency_(cm-1)> (1)
121.734521426248

>  <r_j_Highest_Frequency_(cm-1)> (1)
3165.47781118806

>  <r_j_2nd_Lowest_Frequency_(cm-1)> (1)
131.747040055591

>  <i_j_Num_Negative_Frequencies> (1)
0

>  <r_j_Zero_Point_Energy_(kcal/mol)> (1)
103.376803139357

>  <r_j_Entropy_(cal/mol/K)_298.15K_1.00E+00atm> (1)
82.601240249043

>  <r_j_Enthalpy_(kcal/mol)_298.15K_1.00E+00atm> (1)
5.24316592143665

>  <r_j_Free_Energy_(kcal/mol)_298.15K_1.00E+00atm> (1)
-19.3843938588155

>  <r_j_Internal_Energy_(kcal/mol)_298.15K_1.00E+00atm> (1)
4.65068033260938

>  <r_j_Heat_Capacity_(cal/mol/K)_298.15K_1.00E+00atm> (1)
27.3395907979721

>  <r_j_ln(Q)_298.15K_1.00E+00atm> (1)
32.7170723210056

>  <r_j_Total_Internal_Energy_(au)_298.15K_1.00E+00atm> (1)
-235.776504167253

>  <r_j_Total_Enthalpy_(au)_298.15K_1.00E+00atm> (1)
-235.775559981361

>  <r_j_Total_Free_Energy_(au)_298.15K_1.00E+00atm> (1)
-235.814806496286

>  <r_lp_tautomer_probability> (1)
1

>  <r_epik_Ionization_Penalty> (1)
  0.0000

>  <r_epik_Ionization_Penalty_Charging> (1)
  0.0000

>  <r_epik_Ionization_Penalty_Neutral> (1)
  0.0000

>  <r_epik_State_Penalty> (1)
  0.0000

>  <r_epik_Charging_Adjusted_Penalty> (1)
0

>  <i_epik_Tot_Q> (1)
0

>  <i_epik_Tot_abs_Q> (1)
0

>  <s_lp_Force_Field> (1)
S-OPLS

>  <r_lp_Energy> (1)
-2.61551

>  <b_lp_Chiralities_Consistent> (1)
1

$$$$
