13025_3-Methylindene
                    3D
 Schrodinger Suite 2021-3.
 20 21  0  0  1  0            999 V2000
   -0.0103   -0.0124    0.0005 C   0  0  0  0  0  0
    1.4950   -0.0009   -0.0002 C   0  0  0  0  0  0
    2.3168   -1.0726   -0.0006 C   0  0  0  0  0  0
    3.7676   -0.6586   -0.0005 C   0  0  0  0  0  0
    3.6796    0.8489   -0.0002 C   0  0  0  0  0  0
    4.6791    1.8107    0.0004 C   0  0  0  0  0  0
    4.3148    3.1634    0.0005 C   0  0  0  0  0  0
    2.9677    3.5358    0.0002 C   0  0  0  0  0  0
    1.9581    2.5692   -0.0001 C   0  0  0  0  0  0
    2.3192    1.2213   -0.0002 C   0  0  0  0  0  0
   -0.4245    0.9992   -0.0013 H   0  0  0  0  0  0
   -0.4034   -0.5269    0.8838 H   0  0  0  0  0  0
   -0.4042   -0.5305   -0.8804 H   0  0  0  0  0  0
    1.9988   -2.1096   -0.0005 H   0  0  0  0  0  0
    4.3061   -1.0399    0.8786 H   0  0  0  0  0  0
    4.3077   -1.0401   -0.8787 H   0  0  0  0  0  0
    5.7274    1.5233    0.0007 H   0  0  0  0  0  0
    5.0848    3.9295    0.0009 H   0  0  0  0  0  0
    2.7027    4.5895    0.0001 H   0  0  0  0  0  0
    0.9140    2.8691   -0.0003 H   0  0  0  0  0  0
  1  2  1  0  0  0
  1 11  1  0  0  0
  1 12  1  0  0  0
  1 13  1  0  0  0
  2 10  1  0  0  0
  2  3  2  0  0  0
  3  4  1  0  0  0
  3 14  1  0  0  0
  4  5  1  0  0  0
  4 15  1  0  0  0
  4 16  1  0  0  0
  5 10  1  0  0  0
  5  6  2  0  0  0
  6  7  1  0  0  0
  6 17  1  0  0  0
  7  8  2  0  0  0
  7 18  1  0  0  0
  8  9  1  0  0  0
  8 19  1  0  0  0
  9 10  2  0  0  0
  9 20  1  0  0  0
M  END
>  <i_m_Spin_multiplicity> (1)
1

>  <s_j_Task> (1)
Single Point

>  <s_j_QM_Method> (1)
DFT(b3lyp-d3)

>  <s_j_QM_Basis> (1)
cc-pvtz(-f)

>  <i_j_Number_of_canonical_orbitals> (1)
313

>  <i_j_Geometry_convergence_category> (1)
0

>  <r_j_Gas_Phase_Energy> (1)
-387.213528629308

>  <r_j_Final_Energy> (1)
-387.213528629308

>  <r_j_HOMO> (1)
-0.210261239605668

>  <r_j_LUMO> (1)
-0.0235449175413498

>  <r_j_Polarizability> (1)
110.354320974875

>  <r_j_QM_Dipole_(debye)> (1)
0.709717491808096

>  <r_j_QM_Dipole_X_(debye)> (1)
-0.17368985085839

>  <r_j_QM_Dipole_Y_(debye)> (1)
-0.68813463196331

>  <r_j_QM_Dipole_Z_(debye)> (1)
0.00121744810368642

>  <r_j_Lowest_Frequency_(cm-1)> (1)
51.4546290998596

>  <r_j_Highest_Frequency_(cm-1)> (1)
3152.8922474575

>  <r_j_2nd_Lowest_Frequency_(cm-1)> (1)
159.525725236478

>  <i_j_Num_Negative_Frequencies> (1)
0

>  <r_j_Zero_Point_Energy_(kcal/mol)> (1)
104.828767934449

>  <r_j_Entropy_(cal/mol/K)_298.15K_1.00E+00atm> (1)
87.4738636679917

>  <r_j_Enthalpy_(kcal/mol)_298.15K_1.00E+00atm> (1)
5.61988546469621

>  <r_j_Free_Energy_(kcal/mol)_298.15K_1.00E+00atm> (1)
-20.4604469879155

>  <r_j_Internal_Energy_(kcal/mol)_298.15K_1.00E+00atm> (1)
5.02739987586893

>  <r_j_Heat_Capacity_(cal/mol/K)_298.15K_1.00E+00atm> (1)
32.3974662379372

>  <r_j_ln(Q)_298.15K_1.00E+00atm> (1)
34.5332399196638

>  <r_j_Total_Internal_Energy_(au)_298.15K_1.00E+00atm> (1)
-387.038461681218

>  <r_j_Total_Enthalpy_(au)_298.15K_1.00E+00atm> (1)
-387.037517495326

>  <r_j_Total_Free_Energy_(au)_298.15K_1.00E+00atm> (1)
-387.079079150885

>  <r_lp_tautomer_probability> (1)
0.5

>  <r_epik_Ionization_Penalty> (1)
  0.0000

>  <r_epik_Ionization_Penalty_Charging> (1)
  0.0000

>  <r_epik_Ionization_Penalty_Neutral> (1)
  0.0000

>  <r_epik_State_Penalty> (1)
  0.4107

>  <r_epik_Charging_Adjusted_Penalty> (1)
0.41068

>  <i_epik_Tot_Q> (1)
0

>  <i_epik_Tot_abs_Q> (1)
0

>  <s_lp_Force_Field> (1)
S-OPLS

>  <r_lp_Energy> (1)
8.61204

>  <b_lp_Chiralities_Consistent> (1)
1

$$$$
