13024_Methylindene
                    3D
 Schrodinger Suite 2021-3.
 20 21  0  0  1  0            999 V2000
   -0.0509   -0.0408   -0.0119 C   0  0  0  0  0  0
    1.4882    0.0107   -0.0012 C   0  0  0  0  0  0
    2.0722    0.7721   -1.1734 C   0  0  0  0  0  0
    2.8447    1.7917   -0.7546 C   0  0  0  0  0  0
    2.8678    1.8219    0.7114 C   0  0  0  0  0  0
    3.5133    2.6759    1.6054 C   0  0  0  0  0  0
    3.3448    2.4606    2.9764 C   0  0  0  0  0  0
    2.5463    1.4125    3.4429 C   0  0  0  0  0  0
    1.8990    0.5541    2.5441 C   0  0  0  0  0  0
    2.0643    0.7627    1.1828 C   0  0  0  0  0  0
   -0.4651    0.9717   -0.0051 H   0  0  0  0  0  0
   -0.4279   -0.5704    0.8683 H   0  0  0  0  0  0
   -0.4191   -0.5584   -0.9037 H   0  0  0  0  0  0
    1.8686   -1.0224   -0.0068 H   0  0  0  0  0  0
    1.8634    0.5082   -2.2042 H   0  0  0  0  0  0
    3.3764    2.4953   -1.3862 H   0  0  0  0  0  0
    4.1341    3.4917    1.2453 H   0  0  0  0  0  0
    3.8391    3.1155    3.6883 H   0  0  0  0  0  0
    2.4271    1.2624    4.5120 H   0  0  0  0  0  0
    1.2790   -0.2595    2.9118 H   0  0  0  0  0  0
  1  2  1  0  0  0
  1 11  1  0  0  0
  1 12  1  0  0  0
  1 13  1  0  0  0
  2 10  1  0  0  0
  2  3  1  0  0  0
  2 14  1  0  0  0
  3  4  2  0  0  0
  3 15  1  0  0  0
  4  5  1  0  0  0
  4 16  1  0  0  0
  5 10  1  0  0  0
  5  6  2  0  0  0
  6  7  1  0  0  0
  6 17  1  0  0  0
  7  8  2  0  0  0
  7 18  1  0  0  0
  8  9  1  0  0  0
  8 19  1  0  0  0
  9 10  2  0  0  0
  9 20  1  0  0  0
M  END
>  <i_m_Spin_multiplicity> (1)
1

>  <s_j_Task> (1)
Single Point

>  <s_j_QM_Method> (1)
DFT(b3lyp-d3)

>  <s_j_QM_Basis> (1)
cc-pvtz(-f)

>  <i_j_Number_of_canonical_orbitals> (1)
313

>  <i_j_Geometry_convergence_category> (1)
3

>  <r_j_Gas_Phase_Energy> (1)
-387.210933966382

>  <r_j_Final_Energy> (1)
-387.210933966382

>  <r_j_HOMO> (1)
-0.219424606470082

>  <r_j_LUMO> (1)
-0.0308711391891777

>  <r_j_Polarizability> (1)
110.0553326049

>  <r_j_QM_Dipole_(debye)> (1)
0.692712846225335

>  <r_j_QM_Dipole_X_(debye)> (1)
-0.361488701644855

>  <r_j_QM_Dipole_Y_(debye)> (1)
-0.423236419907884

>  <r_j_QM_Dipole_Z_(debye)> (1)
-0.412368692764472

>  <r_j_Lowest_Frequency_(cm-1)> (1)
131.383756388834

>  <r_j_Highest_Frequency_(cm-1)> (1)
3167.97099418251

>  <r_j_2nd_Lowest_Frequency_(cm-1)> (1)
180.249360156228

>  <i_j_Num_Negative_Frequencies> (1)
0

>  <r_j_Zero_Point_Energy_(kcal/mol)> (1)
105.330951760659

>  <r_j_Entropy_(cal/mol/K)_298.15K_1.00E+00atm> (1)
85.4809237205976

>  <r_j_Enthalpy_(kcal/mol)_298.15K_1.00E+00atm> (1)
5.39182556871105

>  <r_j_Free_Energy_(kcal/mol)_298.15K_1.00E+00atm> (1)
-20.0943118385851

>  <r_j_Internal_Energy_(kcal/mol)_298.15K_1.00E+00atm> (1)
4.79933997988378

>  <r_j_Heat_Capacity_(cal/mol/K)_298.15K_1.00E+00atm> (1)
31.7984901423957

>  <r_j_ln(Q)_298.15K_1.00E+00atm> (1)
33.9152752700001

>  <r_j_Total_Internal_Energy_(au)_298.15K_1.00E+00atm> (1)
-387.035430174

>  <r_j_Total_Enthalpy_(au)_298.15K_1.00E+00atm> (1)
-387.034485988108

>  <r_j_Total_Free_Energy_(au)_298.15K_1.00E+00atm> (1)
-387.075100733583

>  <r_lp_tautomer_probability> (1)
0.5

>  <r_epik_Ionization_Penalty> (1)
  0.0000

>  <r_epik_Ionization_Penalty_Charging> (1)
  0.0000

>  <r_epik_Ionization_Penalty_Neutral> (1)
  0.0000

>  <r_epik_State_Penalty> (1)
  0.4107

>  <r_epik_Charging_Adjusted_Penalty> (1)
0.41068

>  <i_epik_Tot_Q> (1)
0

>  <i_epik_Tot_abs_Q> (1)
0

>  <s_lp_Force_Field> (1)
S-OPLS

>  <r_lp_Energy> (1)
10.8327

>  <b_lp_Chiralities_Consistent> (1)
1

$$$$
