13033_4-Phenyl-1-butene
                    3D
 Schrodinger Suite 2021-3.
 22 22  0  0  1  0            999 V2000
   -1.0795    2.0986    1.0979 C   0  0  0  0  0  0
   -0.4275    1.5056    0.0978 C   0  0  0  0  0  0
    0.0745    0.0897    0.1094 C   0  0  0  0  0  0
    1.6164    0.0066   -0.0149 C   0  0  0  0  0  0
    2.1033   -1.4242   -0.0232 C   0  0  0  0  0  0
    2.3847   -2.0896    1.1767 C   0  0  0  0  0  0
    2.7749   -3.4285    1.1794 C   0  0  0  0  0  0
    2.8906   -4.1264   -0.0235 C   0  0  0  0  0  0
    2.6143   -3.4750   -1.2262 C   0  0  0  0  0  0
    2.2240   -2.1358   -1.2233 C   0  0  0  0  0  0
   -1.3109    1.5683    2.0190 H   0  0  0  0  0  0
   -1.4085    3.1317    1.0353 H   0  0  0  0  0  0
   -0.2117    2.0760   -0.8072 H   0  0  0  0  0  0
   -0.2401   -0.4187    1.0284 H   0  0  0  0  0  0
   -0.3659   -0.4722   -0.7262 H   0  0  0  0  0  0
    1.9304    0.5169   -0.9339 H   0  0  0  0  0  0
    2.0665    0.5561    0.8197 H   0  0  0  0  0  0
    2.2968   -1.5503    2.1170 H   0  0  0  0  0  0
    2.9915   -3.9262    2.1205 H   0  0  0  0  0  0
    3.1962   -5.1687   -0.0237 H   0  0  0  0  0  0
    2.7059   -4.0092   -2.1679 H   0  0  0  0  0  0
    2.0111   -1.6335   -2.1642 H   0  0  0  0  0  0
  1  2  2  0  0  0
  1 11  1  0  0  0
  1 12  1  0  0  0
  2  3  1  0  0  0
  2 13  1  0  0  0
  3  4  1  0  0  0
  3 14  1  0  0  0
  3 15  1  0  0  0
  4  5  1  0  0  0
  4 16  1  0  0  0
  4 17  1  0  0  0
  5 10  1  0  0  0
  5  6  2  0  0  0
  6  7  1  0  0  0
  6 18  1  0  0  0
  7  8  2  0  0  0
  7 19  1  0  0  0
  8  9  1  0  0  0
  8 20  1  0  0  0
  9 10  2  0  0  0
  9 21  1  0  0  0
 10 22  1  0  0  0
M  END
>  <i_m_Spin_multiplicity> (1)
1

>  <s_j_Task> (1)
Single Point

>  <s_j_QM_Method> (1)
DFT(b3lyp-d3)

>  <s_j_QM_Basis> (1)
cc-pvtz(-f)

>  <i_j_Number_of_canonical_orbitals> (1)
331

>  <i_j_Geometry_convergence_category> (1)
3

>  <r_j_Gas_Phase_Energy> (1)
-388.412845764622

>  <r_j_Final_Energy> (1)
-388.412845764622

>  <r_j_HOMO> (1)
-0.254529030350534

>  <r_j_LUMO> (1)
-0.0269809119110078

>  <r_j_Polarizability> (1)
113.836672781087

>  <r_j_QM_Dipole_(debye)> (1)
0.13707229949874

>  <r_j_QM_Dipole_X_(debye)> (1)
0.0270031706736019

>  <r_j_QM_Dipole_Y_(debye)> (1)
0.00402570154049246

>  <r_j_QM_Dipole_Z_(debye)> (1)
-0.1343258641906

>  <r_j_Lowest_Frequency_(cm-1)> (1)
78.9426138190218

>  <r_j_Highest_Frequency_(cm-1)> (1)
3168.78334348034

>  <r_j_2nd_Lowest_Frequency_(cm-1)> (1)
98.0488239640182

>  <i_j_Num_Negative_Frequencies> (1)
0

>  <r_j_Zero_Point_Energy_(kcal/mol)> (1)
118.930081141326

>  <r_j_Entropy_(cal/mol/K)_298.15K_1.00E+00atm> (1)
93.0856871237966

>  <r_j_Enthalpy_(kcal/mol)_298.15K_1.00E+00atm> (1)
6.24292550042103

>  <r_j_Free_Energy_(kcal/mol)_298.15K_1.00E+00atm> (1)
-21.5105721155389

>  <r_j_Internal_Energy_(kcal/mol)_298.15K_1.00E+00atm> (1)
5.65043991159375

>  <r_j_Heat_Capacity_(cal/mol/K)_298.15K_1.00E+00atm> (1)
35.1605232041006

>  <r_j_ln(Q)_298.15K_1.00E+00atm> (1)
36.3056461138835

>  <r_j_Total_Internal_Energy_(au)_298.15K_1.00E+00atm> (1)
-388.214314065885

>  <r_j_Total_Enthalpy_(au)_298.15K_1.00E+00atm> (1)
-388.213369879993

>  <r_j_Total_Free_Energy_(au)_298.15K_1.00E+00atm> (1)
-388.257597893979

>  <r_lp_tautomer_probability> (1)
1

>  <r_epik_Ionization_Penalty> (1)
  0.0000

>  <r_epik_Ionization_Penalty_Charging> (1)
  0.0000

>  <r_epik_Ionization_Penalty_Neutral> (1)
  0.0000

>  <r_epik_State_Penalty> (1)
  0.0000

>  <r_epik_Charging_Adjusted_Penalty> (1)
0

>  <i_epik_Tot_Q> (1)
0

>  <i_epik_Tot_abs_Q> (1)
0

>  <s_lp_Force_Field> (1)
S-OPLS

>  <r_lp_Energy> (1)
7.910388

>  <b_lp_Chiralities_Consistent> (1)
1

$$$$
