13076_9,10-Dimethylanthracene
                    3D
 Schrodinger Suite 2021-3.
 30 32  0  0  1  0            999 V2000
   -0.0605   -0.0452    0.0002 C   0  0  0  0  0  0
    1.4535    0.0032    0.0001 C   0  0  0  0  0  0
    2.1665    1.2230    0.0001 C   0  0  0  0  0  0
    1.5132    2.5001    0.0000 C   0  0  0  0  0  0
    2.2120    3.6763   -0.0001 C   0  0  0  0  0  0
    3.6310    3.6627   -0.0002 C   0  0  0  0  0  0
    4.3017    2.4701   -0.0001 C   0  0  0  0  0  0
    3.6151    1.2113    0.0001 C   0  0  0  0  0  0
    4.3305   -0.0073    0.0001 C   0  0  0  0  0  0
    3.6174   -1.2268    0.0001 C   0  0  0  0  0  0
    4.2708   -2.5038    0.0001 C   0  0  0  0  0  0
    3.5720   -3.6799   -0.0001 C   0  0  0  0  0  0
    2.1531   -3.6658   -0.0002 C   0  0  0  0  0  0
    1.4823   -2.4736   -0.0001 C   0  0  0  0  0  0
    2.1689   -1.2151    0.0000 C   0  0  0  0  0  0
    5.8447    0.0401    0.0001 C   0  0  0  0  0  0
   -0.5214    0.9399    0.0003 H   0  0  0  0  0  0
   -0.4376   -0.5755    0.8819 H   0  0  0  0  0  0
   -0.4377   -0.5753   -0.8817 H   0  0  0  0  0  0
    0.4315    2.5456    0.0000 H   0  0  0  0  0  0
    1.6799    4.6232   -0.0002 H   0  0  0  0  0  0
    4.1820    4.5986   -0.0003 H   0  0  0  0  0  0
    5.3847    2.4820   -0.0001 H   0  0  0  0  0  0
    5.3525   -2.5492    0.0001 H   0  0  0  0  0  0
    4.1037   -4.6270   -0.0001 H   0  0  0  0  0  0
    1.6021   -4.6018   -0.0003 H   0  0  0  0  0  0
    0.3992   -2.4856   -0.0002 H   0  0  0  0  0  0
    6.3063   -0.9450    0.0000 H   0  0  0  0  0  0
    6.2217    0.5702    0.8820 H   0  0  0  0  0  0
    6.2217    0.5704   -0.8817 H   0  0  0  0  0  0
  1  2  1  0  0  0
  1 17  1  0  0  0
  1 18  1  0  0  0
  1 19  1  0  0  0
  2 15  1  0  0  0
  2  3  2  0  0  0
  3  8  1  0  0  0
  3  4  1  0  0  0
  4  5  2  0  0  0
  4 20  1  0  0  0
  5  6  1  0  0  0
  5 21  1  0  0  0
  6  7  2  0  0  0
  6 22  1  0  0  0
  7  8  1  0  0  0
  7 23  1  0  0  0
  8  9  2  0  0  0
  9 10  1  0  0  0
  9 16  1  0  0  0
 10 15  1  0  0  0
 10 11  2  0  0  0
 11 12  1  0  0  0
 11 24  1  0  0  0
 12 13  2  0  0  0
 12 25  1  0  0  0
 13 14  1  0  0  0
 13 26  1  0  0  0
 14 15  2  0  0  0
 14 27  1  0  0  0
 16 28  1  0  0  0
 16 29  1  0  0  0
 16 30  1  0  0  0
M  END
>  <i_m_Spin_multiplicity> (1)
1

>  <s_j_Task> (1)
Single Point

>  <s_j_QM_Method> (1)
DFT(b3lyp-d3)

>  <s_j_QM_Basis> (1)
cc-pvtz(-f)

>  <i_j_Number_of_canonical_orbitals> (1)
479

>  <i_j_Geometry_convergence_category> (1)
0

>  <r_j_Gas_Phase_Energy> (1)
-618.362040780725

>  <r_j_Final_Energy> (1)
-618.362040780725

>  <r_j_HOMO> (1)
-0.193756078145152

>  <r_j_LUMO> (1)
-0.0704332588786103

>  <r_j_Polarizability> (1)
197.148491957216

>  <r_j_QM_Dipole_(debye)> (1)
0.0043822220208729

>  <r_j_QM_Dipole_X_(debye)> (1)
0.00425736498683621

>  <r_j_QM_Dipole_Y_(debye)> (1)
-0.00103360642259425

>  <r_j_QM_Dipole_Z_(debye)> (1)
-0.000101837970602428

>  <r_j_Lowest_Frequency_(cm-1)> (1)
73.2449053466222

>  <r_j_Highest_Frequency_(cm-1)> (1)
3171.54063582315

>  <r_j_2nd_Lowest_Frequency_(cm-1)> (1)
119.771725369311

>  <i_j_Num_Negative_Frequencies> (1)
0

>  <r_j_Zero_Point_Energy_(kcal/mol)> (1)
156.225828912783

>  <r_j_Entropy_(cal/mol/K)_298.15K_1.00E+00atm> (1)
106.549473469038

>  <r_j_Enthalpy_(kcal/mol)_298.15K_1.00E+00atm> (1)
8.27326430043345

>  <r_j_Free_Energy_(kcal/mol)_298.15K_1.00E+00atm> (1)
-23.4944612143602

>  <r_j_Internal_Energy_(kcal/mol)_298.15K_1.00E+00atm> (1)
7.68077871160617

>  <r_j_Heat_Capacity_(cal/mol/K)_298.15K_1.00E+00atm> (1)
51.8183688648995

>  <r_j_ln(Q)_298.15K_1.00E+00atm> (1)
39.6540635880504

>  <r_j_Total_Internal_Energy_(au)_298.15K_1.00E+00atm> (1)
-618.100838973485

>  <r_j_Total_Enthalpy_(au)_298.15K_1.00E+00atm> (1)
-618.099894787593

>  <r_j_Total_Free_Energy_(au)_298.15K_1.00E+00atm> (1)
-618.150519880971

>  <r_lp_tautomer_probability> (1)
1

>  <r_epik_Ionization_Penalty> (1)
  0.0000

>  <r_epik_Ionization_Penalty_Charging> (1)
  0.0000

>  <r_epik_Ionization_Penalty_Neutral> (1)
  0.0000

>  <r_epik_State_Penalty> (1)
  0.0000

>  <r_epik_Charging_Adjusted_Penalty> (1)
0

>  <i_epik_Tot_Q> (1)
0

>  <i_epik_Tot_abs_Q> (1)
0

>  <s_lp_Force_Field> (1)
S-OPLS

>  <r_lp_Energy> (1)
42.4013

>  <b_lp_Chiralities_Consistent> (1)
1

$$$$
