13129_1,1,1,2-Tetrafluoroethane
                    3D
 Schrodinger Suite 2021-3.
  8  7  0  0  1  0            999 V2000
   -0.0180   -0.0073    0.0000 C   0  0  0  0  0  0
    1.5004   -0.0007    0.0000 C   0  0  0  0  0  0
    1.9416   -1.2785    0.0001 F   0  0  0  0  0  0
    1.9943    0.6154   -1.0880 F   0  0  0  0  0  0
    1.9943    0.6156    1.0878 F   0  0  0  0  0  0
   -0.4820    1.2890    0.0001 F   0  0  0  0  0  0
   -0.3638   -0.5325   -0.8960 H   0  0  0  0  0  0
   -0.3639   -0.5327    0.8958 H   0  0  0  0  0  0
  1  2  1  0  0  0
  1  6  1  0  0  0
  1  7  1  0  0  0
  1  8  1  0  0  0
  2  3  1  0  0  0
  2  4  1  0  0  0
  2  5  1  0  0  0
M  END
>  <i_m_Spin_multiplicity> (1)
1

>  <s_j_Task> (1)
Single Point

>  <s_j_QM_Method> (1)
DFT(b3lyp-d3)

>  <s_j_QM_Basis> (1)
cc-pvtz(-f)

>  <i_j_Number_of_canonical_orbitals> (1)
156

>  <i_j_Geometry_convergence_category> (1)
0

>  <r_j_Gas_Phase_Energy> (1)
-476.968188733867

>  <r_j_Final_Energy> (1)
-476.968188733867

>  <r_j_HOMO> (1)
-0.374620054343559

>  <r_j_LUMO> (1)
0.0313318945652185

>  <r_j_Polarizability> (1)
26.8010429795252

>  <r_j_QM_Dipole_(debye)> (1)
1.98962333352738

>  <r_j_QM_Dipole_X_(debye)> (1)
-1.33458542702097

>  <r_j_QM_Dipole_Y_(debye)> (1)
-1.47562959834744

>  <r_j_QM_Dipole_Z_(debye)> (1)
0.000189158215920045

>  <r_j_Lowest_Frequency_(cm-1)> (1)
125.982351536862

>  <r_j_Highest_Frequency_(cm-1)> (1)
3076.0772720248

>  <r_j_2nd_Lowest_Frequency_(cm-1)> (1)
221.457495569235

>  <i_j_Num_Negative_Frequencies> (1)
0

>  <r_j_Zero_Point_Energy_(kcal/mol)> (1)
28.1948888603455

>  <r_j_Entropy_(cal/mol/K)_298.15K_1.00E+00atm> (1)
75.3479807555157

>  <r_j_Enthalpy_(kcal/mol)_298.15K_1.00E+00atm> (1)
4.00977485929295

>  <r_j_Free_Energy_(kcal/mol)_298.15K_1.00E+00atm> (1)
-18.455225602964

>  <r_j_Internal_Energy_(kcal/mol)_298.15K_1.00E+00atm> (1)
3.41728927046567

>  <r_j_Heat_Capacity_(cal/mol/K)_298.15K_1.00E+00atm> (1)
18.1905015155813

>  <r_j_ln(Q)_298.15K_1.00E+00atm> (1)
31.1488177113186

>  <r_j_Total_Internal_Energy_(au)_298.15K_1.00E+00atm> (1)
-476.917811521025

>  <r_j_Total_Enthalpy_(au)_298.15K_1.00E+00atm> (1)
-476.916867335132

>  <r_j_Total_Free_Energy_(au)_298.15K_1.00E+00atm> (1)
-476.952667592397

>  <r_lp_tautomer_probability> (1)
1

>  <r_epik_Ionization_Penalty> (1)
  0.0000

>  <r_epik_Ionization_Penalty_Charging> (1)
  0.0000

>  <r_epik_Ionization_Penalty_Neutral> (1)
  0.0000

>  <r_epik_State_Penalty> (1)
  0.0000

>  <r_epik_Charging_Adjusted_Penalty> (1)
0

>  <i_epik_Tot_Q> (1)
0

>  <i_epik_Tot_abs_Q> (1)
0

>  <s_lp_Force_Field> (1)
S-OPLS

>  <r_lp_Energy> (1)
-4.77707

>  <b_lp_Chiralities_Consistent> (1)
1

$$$$
