13152_Tetramethylpentanone
                    3D
 Schrodinger Suite 2021-3.
 28 27  0  0  1  0            999 V2000
   -0.9271    1.2878   -0.0142 C   0  0  0  0  0  0
   -0.1107   -0.0184    0.0370 C   0  0  0  0  0  0
   -0.5458   -0.8097    1.2872 C   0  0  0  0  0  0
   -0.4156   -0.8821   -1.2129 C   0  0  0  0  0  0
    1.4331    0.1831    0.1144 C   0  0  0  0  0  0
    2.0633   -0.5460    0.8619 O   0  0  0  0  0  0
    2.2281    1.2502   -0.6973 C   0  0  0  0  0  0
    1.7742    1.4104   -2.1616 C   0  0  0  0  0  0
    3.7129    0.8334   -0.6959 C   0  0  0  0  0  0
    2.1052    2.6040    0.0463 C   0  0  0  0  0  0
   -1.9944    1.0423   -0.0468 H   0  0  0  0  0  0
   -0.7087    1.8985   -0.8917 H   0  0  0  0  0  0
   -0.7578    1.8968    0.8792 H   0  0  0  0  0  0
   -0.3126   -0.2569    2.2021 H   0  0  0  0  0  0
   -0.0331   -1.7709    1.3460 H   0  0  0  0  0  0
   -1.6263   -0.9849    1.2553 H   0  0  0  0  0  0
   -1.4716   -1.1737   -1.2017 H   0  0  0  0  0  0
    0.1850   -1.7974   -1.2085 H   0  0  0  0  0  0
   -0.2283   -0.3517   -2.1480 H   0  0  0  0  0  0
    2.4015    2.1638   -2.6507 H   0  0  0  0  0  0
    0.7383    1.7394   -2.2581 H   0  0  0  0  0  0
    1.8909    0.4751   -2.7178 H   0  0  0  0  0  0
    3.8477   -0.1401   -1.1765 H   0  0  0  0  0  0
    4.1007    0.7527    0.3207 H   0  0  0  0  0  0
    4.3045    1.5743   -1.2437 H   0  0  0  0  0  0
    2.7841    3.3311   -0.4129 H   0  0  0  0  0  0
    2.3904    2.4970    1.0978 H   0  0  0  0  0  0
    1.0970    3.0193    0.0035 H   0  0  0  0  0  0
  1  2  1  0  0  0
  1 11  1  0  0  0
  1 12  1  0  0  0
  1 13  1  0  0  0
  2  3  1  0  0  0
  2  4  1  0  0  0
  2  5  1  0  0  0
  3 14  1  0  0  0
  3 15  1  0  0  0
  3 16  1  0  0  0
  4 17  1  0  0  0
  4 18  1  0  0  0
  4 19  1  0  0  0
  5  6  2  0  0  0
  5  7  1  0  0  0
  7  8  1  0  0  0
  7  9  1  0  0  0
  7 10  1  0  0  0
  8 20  1  0  0  0
  8 21  1  0  0  0
  8 22  1  0  0  0
  9 23  1  0  0  0
  9 24  1  0  0  0
  9 25  1  0  0  0
 10 26  1  0  0  0
 10 27  1  0  0  0
 10 28  1  0  0  0
M  END
>  <i_m_Spin_multiplicity> (1)
1

>  <s_j_Task> (1)
Single Point

>  <s_j_QM_Method> (1)
DFT(b3lyp-d3)

>  <s_j_QM_Basis> (1)
cc-pvtz(-f)

>  <i_j_Number_of_canonical_orbitals> (1)
388

>  <i_j_Geometry_convergence_category> (1)
1

>  <r_j_Gas_Phase_Energy> (1)
-429.203221969427

>  <r_j_Final_Energy> (1)
-429.203221969427

>  <r_j_HOMO> (1)
-0.240116497763954

>  <r_j_LUMO> (1)
-0.0199519098134664

>  <r_j_Polarizability> (1)
109.191364380384

>  <r_j_QM_Dipole_(debye)> (1)
2.50760808413706

>  <r_j_QM_Dipole_X_(debye)> (1)
-1.2961619227534

>  <r_j_QM_Dipole_Y_(debye)> (1)
1.49754596087313

>  <r_j_QM_Dipole_Z_(debye)> (1)
-1.53799176483697

>  <r_j_Lowest_Frequency_(cm-1)> (1)
65.3600610034798

>  <r_j_Highest_Frequency_(cm-1)> (1)
3093.5237396966

>  <r_j_2nd_Lowest_Frequency_(cm-1)> (1)
106.057321141045

>  <i_j_Num_Negative_Frequencies> (1)
0

>  <r_j_Zero_Point_Energy_(kcal/mol)> (1)
159.412904764157

>  <r_j_Entropy_(cal/mol/K)_298.15K_1.00E+00atm> (1)
101.086402751495

>  <r_j_Enthalpy_(kcal/mol)_298.15K_1.00E+00atm> (1)
7.96068003315604

>  <r_j_Free_Energy_(kcal/mol)_298.15K_1.00E+00atm> (1)
-22.1782309472021

>  <r_j_Internal_Energy_(kcal/mol)_298.15K_1.00E+00atm> (1)
7.36819444432877

>  <r_j_Heat_Capacity_(cal/mol/K)_298.15K_1.00E+00atm> (1)
47.2513880004789

>  <r_j_ln(Q)_298.15K_1.00E+00atm> (1)
37.4325238713403

>  <r_j_Total_Internal_Energy_(au)_298.15K_1.00E+00atm> (1)
-428.937439368236

>  <r_j_Total_Enthalpy_(au)_298.15K_1.00E+00atm> (1)
-428.936495182344

>  <r_j_Total_Free_Energy_(au)_298.15K_1.00E+00atm> (1)
-428.984524594522

>  <r_lp_tautomer_probability> (1)
1

>  <r_epik_Ionization_Penalty> (1)
  0.0000

>  <r_epik_Ionization_Penalty_Charging> (1)
  0.0000

>  <r_epik_Ionization_Penalty_Neutral> (1)
  0.0000

>  <r_epik_State_Penalty> (1)
  0.0000

>  <r_epik_Charging_Adjusted_Penalty> (1)
0

>  <i_epik_Tot_Q> (1)
0

>  <i_epik_Tot_abs_Q> (1)
0

>  <s_lp_Force_Field> (1)
S-OPLS

>  <r_lp_Energy> (1)
22.839522

>  <b_lp_Chiralities_Consistent> (1)
1

$$$$
