13187_2-Nonanone
                    3D
 Schrodinger Suite 2021-3.
 28 27  0  0  1  0            999 V2000
   -2.8347    2.7678   -0.1323 C   0  0  0  0  0  0
   -2.1798    1.3848   -0.0706 C   0  0  0  0  0  0
   -0.6487    1.4487   -0.0145 C   0  0  0  0  0  0
    0.0099    0.0643    0.0506 C   0  0  0  0  0  0
    1.5456    0.0854    0.0115 C   0  0  0  0  0  0
    2.1951    0.7528    1.2305 C   0  0  0  0  0  0
    3.7359    0.6824    1.1907 C   0  0  0  0  0  0
    4.3275    1.3315    2.4346 C   0  0  0  0  0  0
    4.4994    0.6929    3.4560 O   0  0  0  0  0  0
    4.6461    2.8136    2.3507 C   0  0  0  0  0  0
   -3.9264    2.6952   -0.1731 H   0  0  0  0  0  0
   -2.5038    3.3213   -1.0188 H   0  0  0  0  0  0
   -2.5729    3.3676    0.7471 H   0  0  0  0  0  0
   -2.5504    0.8406    0.8087 H   0  0  0  0  0  0
   -2.4849    0.7930   -0.9444 H   0  0  0  0  0  0
   -0.2748    1.9870   -0.8979 H   0  0  0  0  0  0
   -0.3511    2.0489    0.8556 H   0  0  0  0  0  0
   -0.3224   -0.4534    0.9617 H   0  0  0  0  0  0
   -0.3548   -0.5396   -0.7911 H   0  0  0  0  0  0
    1.9161   -0.9456   -0.0624 H   0  0  0  0  0  0
    1.8799    0.5968   -0.9026 H   0  0  0  0  0  0
    1.8812    1.8020    1.2948 H   0  0  0  0  0  0
    1.8463    0.2651    2.1495 H   0  0  0  0  0  0
    4.0548   -0.3645    1.1723 H   0  0  0  0  0  0
    4.1035    1.1759    0.2823 H   0  0  0  0  0  0
    5.4944    2.9672    1.6724 H   0  0  0  0  0  0
    4.8981    3.1991    3.3396 H   0  0  0  0  0  0
    3.8009    3.3717    1.9320 H   0  0  0  0  0  0
  1  2  1  0  0  0
  1 11  1  0  0  0
  1 12  1  0  0  0
  1 13  1  0  0  0
  2  3  1  0  0  0
  2 14  1  0  0  0
  2 15  1  0  0  0
  3  4  1  0  0  0
  3 16  1  0  0  0
  3 17  1  0  0  0
  4  5  1  0  0  0
  4 18  1  0  0  0
  4 19  1  0  0  0
  5  6  1  0  0  0
  5 20  1  0  0  0
  5 21  1  0  0  0
  6  7  1  0  0  0
  6 22  1  0  0  0
  6 23  1  0  0  0
  7  8  1  0  0  0
  7 24  1  0  0  0
  7 25  1  0  0  0
  8  9  2  0  0  0
  8 10  1  0  0  0
 10 26  1  0  0  0
 10 27  1  0  0  0
 10 28  1  0  0  0
M  END
>  <i_m_Spin_multiplicity> (1)
1

>  <s_j_Task> (1)
Single Point

>  <s_j_QM_Method> (1)
DFT(b3lyp-d3)

>  <s_j_QM_Basis> (1)
cc-pvtz(-f)

>  <i_j_Number_of_canonical_orbitals> (1)
388

>  <i_j_Geometry_convergence_category> (1)
1

>  <r_j_Gas_Phase_Energy> (1)
-429.207348139336

>  <r_j_Final_Energy> (1)
-429.207348139336

>  <r_j_HOMO> (1)
-0.25427521516598

>  <r_j_LUMO> (1)
-0.025492847048733

>  <r_j_Polarizability> (1)
112.09374010636

>  <r_j_QM_Dipole_(debye)> (1)
2.94200366786832

>  <r_j_QM_Dipole_X_(debye)> (1)
-0.846388905063228

>  <r_j_QM_Dipole_Y_(debye)> (1)
1.32263794598473

>  <r_j_QM_Dipole_Z_(debye)> (1)
-2.48789876541989

>  <r_j_Lowest_Frequency_(cm-1)> (1)
64.3060491272149

>  <r_j_Highest_Frequency_(cm-1)> (1)
3099.78118255094

>  <r_j_2nd_Lowest_Frequency_(cm-1)> (1)
73.2509137171544

>  <i_j_Num_Negative_Frequencies> (1)
0

>  <r_j_Zero_Point_Energy_(kcal/mol)> (1)
160.072008413407

>  <r_j_Entropy_(cal/mol/K)_298.15K_1.00E+00atm> (1)
107.000812764917

>  <r_j_Enthalpy_(kcal/mol)_298.15K_1.00E+00atm> (1)
8.16674858876332

>  <r_j_Free_Energy_(kcal/mol)_298.15K_1.00E+00atm> (1)
-23.7355437370966

>  <r_j_Internal_Energy_(kcal/mol)_298.15K_1.00E+00atm> (1)
7.57426299993604

>  <r_j_Heat_Capacity_(cal/mol/K)_298.15K_1.00E+00atm> (1)
44.6636037593497

>  <r_j_ln(Q)_298.15K_1.00E+00atm> (1)
40.0609638186763

>  <r_j_Total_Internal_Energy_(au)_298.15K_1.00E+00atm> (1)
-428.940186798466

>  <r_j_Total_Enthalpy_(au)_298.15K_1.00E+00atm> (1)
-428.939242612574

>  <r_j_Total_Free_Energy_(au)_298.15K_1.00E+00atm> (1)
-428.990082151818

>  <r_lp_tautomer_probability> (1)
1

>  <r_epik_Ionization_Penalty> (1)
  0.0000

>  <r_epik_Ionization_Penalty_Charging> (1)
  0.0000

>  <r_epik_Ionization_Penalty_Neutral> (1)
  0.0000

>  <r_epik_State_Penalty> (1)
  0.0000

>  <r_epik_Charging_Adjusted_Penalty> (1)
0

>  <i_epik_Tot_Q> (1)
0

>  <i_epik_Tot_abs_Q> (1)
0

>  <s_lp_Force_Field> (1)
S-OPLS

>  <r_lp_Energy> (1)
3.527591

>  <b_lp_Chiralities_Consistent> (1)
1

$$$$
