13190_1-undecene
                    3D
 Schrodinger Suite 2021-3.
 33 32  0  0  1  0            999 V2000
   -4.1954    3.0533    0.0722 C   0  0  0  0  0  0
   -2.6656    2.9872    0.0423 C   0  0  0  0  0  0
   -2.1262    1.5522    0.0147 C   0  0  0  0  0  0
   -0.5957    1.4775   -0.0152 C   0  0  0  0  0  0
   -0.0522    0.0443   -0.0214 C   0  0  0  0  0  0
    1.4789   -0.0252   -0.0477 C   0  0  0  0  0  0
    2.0239   -1.4571   -0.0193 C   0  0  0  0  0  0
    3.5551   -1.5215   -0.0397 C   0  0  0  0  0  0
    4.1127   -2.9585    0.0242 C   0  0  0  0  0  0
    3.7663   -3.7802   -1.1872 C   0  0  0  0  0  0
    3.0455   -4.9016   -1.1841 C   0  0  0  0  0  0
   -4.5542    4.0876    0.0945 H   0  0  0  0  0  0
   -4.5946    2.5426    0.9561 H   0  0  0  0  0  0
   -4.6282    2.5690   -0.8108 H   0  0  0  0  0  0
   -2.2903    3.5313   -0.8353 H   0  0  0  0  0  0
   -2.2575    3.5087    0.9189 H   0  0  0  0  0  0
   -2.5004    1.0077    0.8938 H   0  0  0  0  0  0
   -2.5344    1.0273   -0.8611 H   0  0  0  0  0  0
   -0.2229    2.0122   -0.9007 H   0  0  0  0  0  0
   -0.1897    2.0144    0.8542 H   0  0  0  0  0  0
   -0.4244   -0.4883    0.8655 H   0  0  0  0  0  0
   -0.4560   -0.4962   -0.8895 H   0  0  0  0  0  0
    1.8505    0.4892   -0.9457 H   0  0  0  0  0  0
    1.8816    0.5349    0.8086 H   0  0  0  0  0  0
    1.6549   -1.9693    0.8811 H   0  0  0  0  0  0
    1.6238   -2.0227   -0.8707 H   0  0  0  0  0  0
    3.9300   -1.0270   -0.9471 H   0  0  0  0  0  0
    3.9555   -0.9484    0.8070 H   0  0  0  0  0  0
    5.2065   -2.9051    0.1200 H   0  0  0  0  0  0
    3.7416   -3.4564    0.9293 H   0  0  0  0  0  0
    4.1404   -3.3945   -2.1375 H   0  0  0  0  0  0
    2.6474   -5.3185   -0.2619 H   0  0  0  0  0  0
    2.8277   -5.4457   -2.0984 H   0  0  0  0  0  0
  1  2  1  0  0  0
  1 12  1  0  0  0
  1 13  1  0  0  0
  1 14  1  0  0  0
  2  3  1  0  0  0
  2 15  1  0  0  0
  2 16  1  0  0  0
  3  4  1  0  0  0
  3 17  1  0  0  0
  3 18  1  0  0  0
  4  5  1  0  0  0
  4 19  1  0  0  0
  4 20  1  0  0  0
  5  6  1  0  0  0
  5 21  1  0  0  0
  5 22  1  0  0  0
  6  7  1  0  0  0
  6 23  1  0  0  0
  6 24  1  0  0  0
  7  8  1  0  0  0
  7 25  1  0  0  0
  7 26  1  0  0  0
  8  9  1  0  0  0
  8 27  1  0  0  0
  8 28  1  0  0  0
  9 10  1  0  0  0
  9 29  1  0  0  0
  9 30  1  0  0  0
 10 11  2  0  0  0
 10 31  1  0  0  0
 11 32  1  0  0  0
 11 33  1  0  0  0
M  END
>  <i_m_Spin_multiplicity> (1)
1

>  <s_j_Task> (1)
Single Point

>  <s_j_QM_Method> (1)
DFT(b3lyp-d3)

>  <s_j_QM_Basis> (1)
cc-pvtz(-f)

>  <i_j_Number_of_canonical_orbitals> (1)
447

>  <i_j_Geometry_convergence_category> (1)
0

>  <r_j_Gas_Phase_Energy> (1)
-432.591286212944

>  <r_j_Final_Energy> (1)
-432.591286212944

>  <r_j_HOMO> (1)
-0.273759961216717

>  <r_j_LUMO> (1)
-0.00903482869382411

>  <r_j_Polarizability> (1)
135.55512060578

>  <r_j_QM_Dipole_(debye)> (1)
0.378955441332267

>  <r_j_QM_Dipole_X_(debye)> (1)
0.176450208308214

>  <r_j_QM_Dipole_Y_(debye)> (1)
0.317453997966408

>  <r_j_QM_Dipole_Z_(debye)> (1)
0.108145779753373

>  <r_j_Lowest_Frequency_(cm-1)> (1)
56.8712710783439

>  <r_j_Highest_Frequency_(cm-1)> (1)
3168.99637487864

>  <r_j_2nd_Lowest_Frequency_(cm-1)> (1)
73.9289290838943

>  <i_j_Num_Negative_Frequencies> (1)
0

>  <r_j_Zero_Point_Energy_(kcal/mol)> (1)
192.969342940907

>  <r_j_Entropy_(cal/mol/K)_298.15K_1.00E+00atm> (1)
113.340149002966

>  <r_j_Enthalpy_(kcal/mol)_298.15K_1.00E+00atm> (1)
9.033323715508

>  <r_j_Free_Energy_(kcal/mol)_298.15K_1.00E+00atm> (1)
-24.7590417097262

>  <r_j_Internal_Energy_(kcal/mol)_298.15K_1.00E+00atm> (1)
8.44083812668072

>  <r_j_Heat_Capacity_(cal/mol/K)_298.15K_1.00E+00atm> (1)
50.5101610850966

>  <r_j_ln(Q)_298.15K_1.00E+00atm> (1)
41.7884285738199

>  <r_j_Total_Internal_Energy_(au)_298.15K_1.00E+00atm> (1)
-432.270318656761

>  <r_j_Total_Enthalpy_(au)_298.15K_1.00E+00atm> (1)
-432.269374470868

>  <r_j_Total_Free_Energy_(au)_298.15K_1.00E+00atm> (1)
-432.32322603334

>  <r_lp_tautomer_probability> (1)
1

>  <r_epik_Ionization_Penalty> (1)
  0.0000

>  <r_epik_Ionization_Penalty_Charging> (1)
  0.0000

>  <r_epik_Ionization_Penalty_Neutral> (1)
  0.0000

>  <r_epik_State_Penalty> (1)
  0.0000

>  <r_epik_Charging_Adjusted_Penalty> (1)
0

>  <i_epik_Tot_Q> (1)
0

>  <i_epik_Tot_abs_Q> (1)
0

>  <s_lp_Force_Field> (1)
S-OPLS

>  <r_lp_Energy> (1)
1.666388

>  <b_lp_Chiralities_Consistent> (1)
1

$$$$
