13213_2-methylindan
                    3D
 Schrodinger Suite 2021-3.
 22 23  0  0  1  0            999 V2000
   -0.0270   -0.1028   -0.0002 C   0  0  0  0  0  0
    1.4949    0.0066    0.0001 C   0  0  0  0  0  0
    2.0886    0.7580   -1.2210 C   0  0  0  0  0  0
    3.4129    1.2711   -0.7011 C   0  0  0  0  0  0
    4.5265    1.7162   -1.4074 C   0  0  0  0  0  0
    5.6475    2.1602   -0.6986 C   0  0  0  0  0  0
    5.6476    2.1600    0.6985 C   0  0  0  0  0  0
    4.5267    1.7159    1.4074 C   0  0  0  0  0  0
    3.4129    1.2712    0.7011 C   0  0  0  0  0  0
    2.0888    0.7581    1.2211 C   0  0  0  0  0  0
   -0.4876    0.8925   -0.0012 H   0  0  0  0  0  0
   -0.3890   -0.6374    0.8847 H   0  0  0  0  0  0
   -0.3886   -0.6388   -0.8846 H   0  0  0  0  0  0
    1.9267   -1.0037    0.0002 H   0  0  0  0  0  0
    2.1808    0.1222   -2.1081 H   0  0  0  0  0  0
    1.4371    1.6005   -1.4997 H   0  0  0  0  0  0
    4.5298    1.7125   -2.4944 H   0  0  0  0  0  0
    6.5264    2.5036   -1.2371 H   0  0  0  0  0  0
    6.5267    2.5033    1.2370 H   0  0  0  0  0  0
    4.5302    1.7120    2.4944 H   0  0  0  0  0  0
    1.4373    1.6005    1.5003 H   0  0  0  0  0  0
    2.1814    0.1222    2.1080 H   0  0  0  0  0  0
  1  2  1  0  0  0
  1 11  1  0  0  0
  1 12  1  0  0  0
  1 13  1  0  0  0
  2 10  1  0  0  0
  2  3  1  0  0  0
  2 14  1  0  0  0
  3  4  1  0  0  0
  3 15  1  0  0  0
  3 16  1  0  0  0
  4  9  1  0  0  0
  4  5  2  0  0  0
  5  6  1  0  0  0
  5 17  1  0  0  0
  6  7  2  0  0  0
  6 18  1  0  0  0
  7  8  1  0  0  0
  7 19  1  0  0  0
  8  9  2  0  0  0
  8 20  1  0  0  0
  9 10  1  0  0  0
 10 21  1  0  0  0
 10 22  1  0  0  0
M  END
>  <i_m_Spin_multiplicity> (1)
1

>  <s_j_Task> (1)
Single Point

>  <s_j_QM_Method> (1)
DFT(b3lyp-d3)

>  <s_j_QM_Basis> (1)
cc-pvtz(-f)

>  <i_j_Number_of_canonical_orbitals> (1)
331

>  <i_j_Geometry_convergence_category> (1)
3

>  <r_j_Gas_Phase_Energy> (1)
-388.440188656186

>  <r_j_Final_Energy> (1)
-388.440188656186

>  <r_j_HOMO> (1)
-0.22773582162309

>  <r_j_LUMO> (1)
-0.00284005953349323

>  <r_j_Polarizability> (1)
109.871099833949

>  <r_j_QM_Dipole_(debye)> (1)
0.656578159558821

>  <r_j_QM_Dipole_X_(debye)> (1)
-0.581205978008207

>  <r_j_QM_Dipole_Y_(debye)> (1)
-0.305441399758324

>  <r_j_QM_Dipole_Z_(debye)> (1)
0.000205063034418006

>  <r_j_Lowest_Frequency_(cm-1)> (1)
111.507902840839

>  <r_j_Highest_Frequency_(cm-1)> (1)
3142.10974758843

>  <r_j_2nd_Lowest_Frequency_(cm-1)> (1)
205.158901025693

>  <i_j_Num_Negative_Frequencies> (1)
0

>  <r_j_Zero_Point_Energy_(kcal/mol)> (1)
120.068270704415

>  <r_j_Entropy_(cal/mol/K)_298.15K_1.00E+00atm> (1)
87.0730500418545

>  <r_j_Enthalpy_(kcal/mol)_298.15K_1.00E+00atm> (1)
5.62684320998399

>  <r_j_Free_Energy_(kcal/mol)_298.15K_1.00E+00atm> (1)
-20.3339866599949

>  <r_j_Internal_Energy_(kcal/mol)_298.15K_1.00E+00atm> (1)
5.03435762115671

>  <r_j_Heat_Capacity_(cal/mol/K)_298.15K_1.00E+00atm> (1)
33.3895855114732

>  <r_j_ln(Q)_298.15K_1.00E+00atm> (1)
34.3197995756194

>  <r_j_Total_Internal_Energy_(au)_298.15K_1.00E+00atm> (1)
-388.240824926543

>  <r_j_Total_Enthalpy_(au)_298.15K_1.00E+00atm> (1)
-388.239880740651

>  <r_j_Total_Free_Energy_(au)_298.15K_1.00E+00atm> (1)
-388.281251956722

>  <r_lp_tautomer_probability> (1)
1

>  <r_epik_Ionization_Penalty> (1)
  0.0000

>  <r_epik_Ionization_Penalty_Charging> (1)
  0.0000

>  <r_epik_Ionization_Penalty_Neutral> (1)
  0.0000

>  <r_epik_State_Penalty> (1)
  0.0000

>  <r_epik_Charging_Adjusted_Penalty> (1)
0

>  <i_epik_Tot_Q> (1)
0

>  <i_epik_Tot_abs_Q> (1)
0

>  <s_lp_Force_Field> (1)
S-OPLS

>  <r_lp_Energy> (1)
16.1945

>  <b_lp_Chiralities_Consistent> (1)
1

$$$$
