13257_1-methylphenanthrene
                    3D
 Schrodinger Suite 2021-3.
 27 29  0  0  1  0            999 V2000
   -0.0505   -0.0808    0.0000 C   0  0  0  0  0  0
    1.4628    0.0133    0.0000 C   0  0  0  0  0  0
    2.1765    1.2500    0.0000 C   0  0  0  0  0  0
    1.5008    2.5198    0.0000 C   0  0  0  0  0  0
    2.1809    3.6960    0.0000 C   0  0  0  0  0  0
    3.6119    3.7322    0.0000 C   0  0  0  0  0  0
    4.3046    4.9654    0.0000 C   0  0  0  0  0  0
    5.6837    5.0061    0.0000 C   0  0  0  0  0  0
    6.4102    3.8010    0.0000 C   0  0  0  0  0  0
    5.7524    2.5852    0.0000 C   0  0  0  0  0  0
    4.3390    2.5076    0.0000 C   0  0  0  0  0  0
    3.6099    1.2434    0.0000 C   0  0  0  0  0  0
    4.2799    0.0004    0.0000 C   0  0  0  0  0  0
    3.5769   -1.1876    0.0000 C   0  0  0  0  0  0
    2.1759   -1.1765    0.0000 C   0  0  0  0  0  0
   -0.5562    0.8838    0.0001 H   0  0  0  0  0  0
   -0.3989   -0.6310    0.8811 H   0  0  0  0  0  0
   -0.3989   -0.6309   -0.8812 H   0  0  0  0  0  0
    0.4182    2.5458   -0.0001 H   0  0  0  0  0  0
    1.6402    4.6390    0.0000 H   0  0  0  0  0  0
    3.7267    5.8860    0.0001 H   0  0  0  0  0  0
    6.2057    5.9582    0.0000 H   0  0  0  0  0  0
    7.4961    3.8238   -0.0001 H   0  0  0  0  0  0
    6.3462    1.6785    0.0000 H   0  0  0  0  0  0
    5.3628   -0.0347    0.0000 H   0  0  0  0  0  0
    4.1098   -2.1341    0.0001 H   0  0  0  0  0  0
    1.6321   -2.1182    0.0000 H   0  0  0  0  0  0
  1  2  1  0  0  0
  1 16  1  0  0  0
  1 17  1  0  0  0
  1 18  1  0  0  0
  2 15  1  0  0  0
  2  3  2  0  0  0
  3 12  1  0  0  0
  3  4  1  0  0  0
  4  5  2  0  0  0
  4 19  1  0  0  0
  5  6  1  0  0  0
  5 20  1  0  0  0
  6 11  1  0  0  0
  6  7  2  0  0  0
  7  8  1  0  0  0
  7 21  1  0  0  0
  8  9  2  0  0  0
  8 22  1  0  0  0
  9 10  1  0  0  0
  9 23  1  0  0  0
 10 11  2  0  0  0
 10 24  1  0  0  0
 11 12  1  0  0  0
 12 13  2  0  0  0
 13 14  1  0  0  0
 13 25  1  0  0  0
 14 15  2  0  0  0
 14 26  1  0  0  0
 15 27  1  0  0  0
M  END
>  <i_m_Spin_multiplicity> (1)
1

>  <s_j_Task> (1)
Single Point

>  <s_j_QM_Method> (1)
DFT(b3lyp-d3)

>  <s_j_QM_Basis> (1)
cc-pvtz(-f)

>  <i_j_Number_of_canonical_orbitals> (1)
439

>  <i_j_Geometry_convergence_category> (1)
0

>  <r_j_Gas_Phase_Energy> (1)
-579.044167074281

>  <r_j_Final_Energy> (1)
-579.044167074281

>  <r_j_HOMO> (1)
-0.205067743256328

>  <r_j_LUMO> (1)
-0.035775364164814

>  <r_j_Polarizability> (1)
177.363370615095

>  <r_j_QM_Dipole_(debye)> (1)
0.448334899287846

>  <r_j_QM_Dipole_X_(debye)> (1)
-0.407503654908856

>  <r_j_QM_Dipole_Y_(debye)> (1)
-0.186935691674439

>  <r_j_QM_Dipole_Z_(debye)> (1)
1.82637961932122e-05

>  <r_j_Lowest_Frequency_(cm-1)> (1)
62.0594385595879

>  <r_j_Highest_Frequency_(cm-1)> (1)
3168.28221686441

>  <r_j_2nd_Lowest_Frequency_(cm-1)> (1)
89.10704774496

>  <i_j_Num_Negative_Frequencies> (1)
0

>  <r_j_Zero_Point_Energy_(kcal/mol)> (1)
138.645087610597

>  <r_j_Entropy_(cal/mol/K)_298.15K_1.00E+00atm> (1)
101.89766407609

>  <r_j_Enthalpy_(kcal/mol)_298.15K_1.00E+00atm> (1)
7.46768544638123

>  <r_j_Free_Energy_(kcal/mol)_298.15K_1.00E+00atm> (1)
-22.9131030979051

>  <r_j_Internal_Energy_(kcal/mol)_298.15K_1.00E+00atm> (1)
6.87519985755396

>  <r_j_Heat_Capacity_(cal/mol/K)_298.15K_1.00E+00atm> (1)
46.0614686628978

>  <r_j_ln(Q)_298.15K_1.00E+00atm> (1)
38.6728445889422

>  <r_j_Total_Internal_Energy_(au)_298.15K_1.00E+00atm> (1)
-578.812265733464

>  <r_j_Total_Enthalpy_(au)_298.15K_1.00E+00atm> (1)
-578.811321547572

>  <r_j_Total_Free_Energy_(au)_298.15K_1.00E+00atm> (1)
-578.859736416186

>  <r_lp_tautomer_probability> (1)
1

>  <r_epik_Ionization_Penalty> (1)
  0.0000

>  <r_epik_Ionization_Penalty_Charging> (1)
  0.0000

>  <r_epik_Ionization_Penalty_Neutral> (1)
  0.0000

>  <r_epik_State_Penalty> (1)
  0.0000

>  <r_epik_Charging_Adjusted_Penalty> (1)
0

>  <i_epik_Tot_Q> (1)
0

>  <i_epik_Tot_abs_Q> (1)
0

>  <s_lp_Force_Field> (1)
S-OPLS

>  <r_lp_Energy> (1)
35.1526

>  <b_lp_Chiralities_Consistent> (1)
1

$$$$
