13379_2-methylnonane
                    3D
 Schrodinger Suite 2021-3.
 32 31  0  0  1  0            999 V2000
   -4.2313    2.9378    0.0971 C   0  0  0  0  0  0
   -2.7013    2.9098    0.0342 C   0  0  0  0  0  0
   -2.1256    1.4888    0.0232 C   0  0  0  0  0  0
   -0.5944    1.4536   -0.0346 C   0  0  0  0  0  0
   -0.0134    0.0353   -0.0460 C   0  0  0  0  0  0
    1.5190    0.0091   -0.0916 C   0  0  0  0  0  0
    2.0968   -1.4111   -0.1137 C   0  0  0  0  0  0
    3.6327   -1.4933   -0.0339 C   0  0  0  0  0  0
    4.3167   -0.8173   -1.2313 C   0  0  0  0  0  0
    4.0860   -2.9553    0.0862 C   0  0  0  0  0  0
   -4.6159    3.9629    0.1034 H   0  0  0  0  0  0
   -4.5976    2.4383    1.0014 H   0  0  0  0  0  0
   -4.6706    2.4218   -0.7645 H   0  0  0  0  0  0
   -2.3597    3.4444   -0.8627 H   0  0  0  0  0  0
   -2.2877    3.4600    0.8903 H   0  0  0  0  0  0
   -2.4689    0.9514    0.9190 H   0  0  0  0  0  0
   -2.5359    0.9374   -0.8351 H   0  0  0  0  0  0
   -0.2524    1.9931   -0.9295 H   0  0  0  0  0  0
   -0.1865    2.0055    0.8244 H   0  0  0  0  0  0
   -0.3610   -0.5076    0.8445 H   0  0  0  0  0  0
   -0.4128   -0.5149   -0.9101 H   0  0  0  0  0  0
    1.8571    0.5667   -0.9744 H   0  0  0  0  0  0
    1.9166    0.5489    0.7800 H   0  0  0  0  0  0
    1.6724   -1.9763    0.7282 H   0  0  0  0  0  0
    1.7595   -1.9279   -1.0247 H   0  0  0  0  0  0
    3.9469   -0.9648    0.8791 H   0  0  0  0  0  0
    3.9995   -1.2858   -2.1715 H   0  0  0  0  0  0
    5.4061   -0.9112   -1.1648 H   0  0  0  0  0  0
    4.0804    0.2490   -1.2931 H   0  0  0  0  0  0
    3.7952   -3.5260   -0.8046 H   0  0  0  0  0  0
    3.6346   -3.4445    0.9562 H   0  0  0  0  0  0
    5.1744   -3.0284    0.1857 H   0  0  0  0  0  0
  1  2  1  0  0  0
  1 11  1  0  0  0
  1 12  1  0  0  0
  1 13  1  0  0  0
  2  3  1  0  0  0
  2 14  1  0  0  0
  2 15  1  0  0  0
  3  4  1  0  0  0
  3 16  1  0  0  0
  3 17  1  0  0  0
  4  5  1  0  0  0
  4 18  1  0  0  0
  4 19  1  0  0  0
  5  6  1  0  0  0
  5 20  1  0  0  0
  5 21  1  0  0  0
  6  7  1  0  0  0
  6 22  1  0  0  0
  6 23  1  0  0  0
  7  8  1  0  0  0
  7 24  1  0  0  0
  7 25  1  0  0  0
  8  9  1  0  0  0
  8 10  1  0  0  0
  8 26  1  0  0  0
  9 27  1  0  0  0
  9 28  1  0  0  0
  9 29  1  0  0  0
 10 30  1  0  0  0
 10 31  1  0  0  0
 10 32  1  0  0  0
M  END
>  <i_m_Spin_multiplicity> (1)
1

>  <s_j_Task> (1)
Single Point

>  <s_j_QM_Method> (1)
DFT(b3lyp-d3)

>  <s_j_QM_Basis> (1)
cc-pvtz(-f)

>  <i_j_Number_of_canonical_orbitals> (1)
425

>  <i_j_Geometry_convergence_category> (1)
0

>  <r_j_Gas_Phase_Energy> (1)
-394.500727481016

>  <r_j_Final_Energy> (1)
-394.500727481016

>  <r_j_HOMO> (1)
-0.295786288003267

>  <r_j_LUMO> (1)
0.0256578016458226

>  <r_j_Polarizability> (1)
125.241528270815

>  <r_j_QM_Dipole_(debye)> (1)
0.128405969447505

>  <r_j_QM_Dipole_X_(debye)> (1)
0.0340978830870071

>  <r_j_QM_Dipole_Y_(debye)> (1)
0.0954952012330521

>  <r_j_QM_Dipole_Z_(debye)> (1)
0.0787787655412122

>  <r_j_Lowest_Frequency_(cm-1)> (1)
59.3511812036366

>  <r_j_Highest_Frequency_(cm-1)> (1)
3055.21364382349

>  <r_j_2nd_Lowest_Frequency_(cm-1)> (1)
76.1097505594174

>  <i_j_Num_Negative_Frequencies> (1)
0

>  <r_j_Zero_Point_Energy_(kcal/mol)> (1)
189.618926926523

>  <r_j_Entropy_(cal/mol/K)_298.15K_1.00E+00atm> (1)
108.677757997093

>  <r_j_Enthalpy_(kcal/mol)_298.15K_1.00E+00atm> (1)
8.57144484509062

>  <r_j_Free_Energy_(kcal/mol)_298.15K_1.00E+00atm> (1)
-23.8308287017427

>  <r_j_Internal_Energy_(kcal/mol)_298.15K_1.00E+00atm> (1)
7.97895925626334

>  <r_j_Heat_Capacity_(cal/mol/K)_298.15K_1.00E+00atm> (1)
48.1419517971332

>  <r_j_ln(Q)_298.15K_1.00E+00atm> (1)
40.2217862360363

>  <r_j_Total_Internal_Energy_(au)_298.15K_1.00E+00atm> (1)
-394.185835203481

>  <r_j_Total_Enthalpy_(au)_298.15K_1.00E+00atm> (1)
-394.184891017589

>  <r_j_Total_Free_Energy_(au)_298.15K_1.00E+00atm> (1)
-394.23652732763

>  <r_lp_tautomer_probability> (1)
1

>  <r_epik_Ionization_Penalty> (1)
  0.0000

>  <r_epik_Ionization_Penalty_Charging> (1)
  0.0000

>  <r_epik_Ionization_Penalty_Neutral> (1)
  0.0000

>  <r_epik_State_Penalty> (1)
  0.0000

>  <r_epik_Charging_Adjusted_Penalty> (1)
0

>  <i_epik_Tot_Q> (1)
0

>  <i_epik_Tot_abs_Q> (1)
0

>  <s_lp_Force_Field> (1)
S-OPLS

>  <r_lp_Energy> (1)
4.36103

>  <b_lp_Chiralities_Consistent> (1)
1

$$$$
