13387_1-Methyl-2-pyrrolidinone
                    3D
 Schrodinger Suite 2021-3.
 16 16  0  0  1  0            999 V2000
   -0.0031   -0.0064    0.0519 C   0  0  0  0  0  0
    1.4367    0.0033   -0.0667 N   0  0  0  0  0  0
    2.2294   -1.2160   -0.0375 C   0  0  0  0  0  0
    3.6470   -0.7209   -0.3980 C   0  0  0  0  0  0
    3.6526    0.7395    0.0803 C   0  0  0  0  0  0
    2.1797    1.1529    0.0532 C   0  0  0  0  0  0
    1.7301    2.2845    0.1450 O   0  0  0  0  0  0
   -0.3443    1.0304    0.0435 H   0  0  0  0  0  0
   -0.3231   -0.4818    0.9890 H   0  0  0  0  0  0
   -0.4599   -0.5481   -0.7847 H   0  0  0  0  0  0
    2.1970   -1.6801    0.9614 H   0  0  0  0  0  0
    1.8415   -1.9498   -0.7537 H   0  0  0  0  0  0
    4.4269   -1.3364    0.0562 H   0  0  0  0  0  0
    3.7796   -0.7585   -1.4838 H   0  0  0  0  0  0
    4.0041    0.8347    1.1150 H   0  0  0  0  0  0
    4.2508    1.4175   -0.5317 H   0  0  0  0  0  0
  1  2  1  0  0  0
  1  8  1  0  0  0
  1  9  1  0  0  0
  1 10  1  0  0  0
  2  6  1  0  0  0
  2  3  1  0  0  0
  3  4  1  0  0  0
  3 11  1  0  0  0
  3 12  1  0  0  0
  4  5  1  0  0  0
  4 13  1  0  0  0
  4 14  1  0  0  0
  5  6  1  0  0  0
  5 15  1  0  0  0
  5 16  1  0  0  0
  6  7  2  0  0  0
M  END
>  <i_m_Spin_multiplicity> (1)
1

>  <s_j_Task> (1)
Single Point

>  <s_j_QM_Method> (1)
DFT(b3lyp-d3)

>  <s_j_QM_Basis> (1)
cc-pvtz(-f)

>  <i_j_Number_of_canonical_orbitals> (1)
241

>  <i_j_Geometry_convergence_category> (1)
0

>  <r_j_Gas_Phase_Energy> (1)
-326.065733837522

>  <r_j_Final_Energy> (1)
-326.065733837522

>  <r_j_HOMO> (1)
-0.241367152123843

>  <r_j_LUMO> (1)
0.0169838226556402

>  <r_j_Polarizability> (1)
67.354710770426

>  <r_j_QM_Dipole_(debye)> (1)
3.90386929616553

>  <r_j_QM_Dipole_X_(debye)> (1)
0.687300933895409

>  <r_j_QM_Dipole_Y_(debye)> (1)
-3.83953504625072

>  <r_j_QM_Dipole_Z_(debye)> (1)
-0.160572526986595

>  <r_j_Lowest_Frequency_(cm-1)> (1)
172.624905155113

>  <r_j_Highest_Frequency_(cm-1)> (1)
3090.28019092374

>  <r_j_2nd_Lowest_Frequency_(cm-1)> (1)
180.656613100586

>  <i_j_Num_Negative_Frequencies> (1)
0

>  <r_j_Zero_Point_Energy_(kcal/mol)> (1)
86.7495565967584

>  <r_j_Entropy_(cal/mol/K)_298.15K_1.00E+00atm> (1)
79.817330894352

>  <r_j_Enthalpy_(kcal/mol)_298.15K_1.00E+00atm> (1)
4.75540201286524

>  <r_j_Free_Energy_(kcal/mol)_298.15K_1.00E+00atm> (1)
-19.0421351932858

>  <r_j_Internal_Energy_(kcal/mol)_298.15K_1.00E+00atm> (1)
4.16291642403797

>  <r_j_Heat_Capacity_(cal/mol/K)_298.15K_1.00E+00atm> (1)
24.6049237696823

>  <r_j_ln(Q)_298.15K_1.00E+00atm> (1)
32.1394065144715

>  <r_j_Total_Internal_Energy_(au)_298.15K_1.00E+00atm> (1)
-325.920855588878

>  <r_j_Total_Enthalpy_(au)_298.15K_1.00E+00atm> (1)
-325.919911402986

>  <r_j_Total_Free_Energy_(au)_298.15K_1.00E+00atm> (1)
-325.957835192736

>  <r_lp_tautomer_probability> (1)
1

>  <r_epik_Ionization_Penalty> (1)
  0.0000

>  <r_epik_Ionization_Penalty_Charging> (1)
  0.0000

>  <r_epik_Ionization_Penalty_Neutral> (1)
  0.0000

>  <r_epik_State_Penalty> (1)
  0.0000

>  <r_epik_Charging_Adjusted_Penalty> (1)
0

>  <i_epik_Tot_Q> (1)
0

>  <i_epik_Tot_abs_Q> (1)
0

>  <s_lp_Force_Field> (1)
S-OPLS

>  <r_lp_Energy> (1)
-7.963149

>  <b_lp_Chiralities_Consistent> (1)
1

$$$$
