13402_5-methylindan
                    3D
 Schrodinger Suite 2021-3.
 22 23  0  0  1  0            999 V2000
   -0.0297   -0.0072    0.0181 C   0  0  0  0  0  0
    1.4819    0.0084    0.0096 C   0  0  0  0  0  0
    2.1953    1.2141    0.0107 C   0  0  0  0  0  0
    3.5881    1.2009    0.0163 C   0  0  0  0  0  0
    4.2896   -0.0095    0.0150 C   0  0  0  0  0  0
    5.7825    0.2423   -0.0035 C   0  0  0  0  0  0
    5.8880    1.7219    0.4458 C   0  0  0  0  0  0
    4.5520    2.3688   -0.0003 C   0  0  0  0  0  0
    3.5938   -1.2162    0.0084 C   0  0  0  0  0  0
    2.1983   -1.1986    0.0084 C   0  0  0  0  0  0
   -0.4431    1.0047   -0.0185 H   0  0  0  0  0  0
   -0.4178   -0.4935    0.9210 H   0  0  0  0  0  0
   -0.4266   -0.5619   -0.8400 H   0  0  0  0  0  0
    1.6566    2.1593    0.0138 H   0  0  0  0  0  0
    6.3467   -0.4406    0.6403 H   0  0  0  0  0  0
    6.1756    0.1151   -1.0224 H   0  0  0  0  0  0
    5.9580    1.7607    1.5389 H   0  0  0  0  0  0
    6.7670    2.2313    0.0408 H   0  0  0  0  0  0
    4.6360    2.7735   -1.0190 H   0  0  0  0  0  0
    4.2412    3.1974    0.6448 H   0  0  0  0  0  0
    4.1276   -2.1633    0.0095 H   0  0  0  0  0  0
    1.6502   -2.1381    0.0116 H   0  0  0  0  0  0
  1  2  1  0  0  0
  1 11  1  0  0  0
  1 12  1  0  0  0
  1 13  1  0  0  0
  2 10  1  0  0  0
  2  3  2  0  0  0
  3  4  1  0  0  0
  3 14  1  0  0  0
  4  8  1  0  0  0
  4  5  2  0  0  0
  5  6  1  0  0  0
  5  9  1  0  0  0
  6  7  1  0  0  0
  6 15  1  0  0  0
  6 16  1  0  0  0
  7  8  1  0  0  0
  7 17  1  0  0  0
  7 18  1  0  0  0
  8 19  1  0  0  0
  8 20  1  0  0  0
  9 10  2  0  0  0
  9 21  1  0  0  0
 10 22  1  0  0  0
M  END
>  <i_m_Spin_multiplicity> (1)
1

>  <s_j_Task> (1)
Single Point

>  <s_j_QM_Method> (1)
DFT(b3lyp-d3)

>  <s_j_QM_Basis> (1)
cc-pvtz(-f)

>  <i_j_Number_of_canonical_orbitals> (1)
331

>  <i_j_Geometry_convergence_category> (1)
3

>  <r_j_Gas_Phase_Energy> (1)
-388.440943013296

>  <r_j_Final_Energy> (1)
-388.440943013296

>  <r_j_HOMO> (1)
-0.226393326447278

>  <r_j_LUMO> (1)
-0.00807054943993331

>  <r_j_Polarizability> (1)
111.512944953926

>  <r_j_QM_Dipole_(debye)> (1)
0.292303281971732

>  <r_j_QM_Dipole_X_(debye)> (1)
0.167941040906189

>  <r_j_QM_Dipole_Y_(debye)> (1)
0.238672297750756

>  <r_j_QM_Dipole_Z_(debye)> (1)
-0.0165090798400691

>  <r_j_Lowest_Frequency_(cm-1)> (1)
137.410301441879

>  <r_j_Highest_Frequency_(cm-1)> (1)
3126.71849571807

>  <r_j_2nd_Lowest_Frequency_(cm-1)> (1)
181.055919924092

>  <i_j_Num_Negative_Frequencies> (1)
0

>  <r_j_Zero_Point_Energy_(kcal/mol)> (1)
119.794764869182

>  <r_j_Entropy_(cal/mol/K)_298.15K_1.00E+00atm> (1)
88.1841338435907

>  <r_j_Enthalpy_(kcal/mol)_298.15K_1.00E+00atm> (1)
5.79176751280688

>  <r_j_Free_Energy_(kcal/mol)_298.15K_1.00E+00atm> (1)
-20.5003319926597

>  <r_j_Internal_Energy_(kcal/mol)_298.15K_1.00E+00atm> (1)
5.1992819239796

>  <r_j_Heat_Capacity_(cal/mol/K)_298.15K_1.00E+00atm> (1)
33.8573300023758

>  <r_j_ln(Q)_298.15K_1.00E+00atm> (1)
34.6005580207219

>  <r_j_Total_Internal_Energy_(au)_298.15K_1.00E+00atm> (1)
-388.241752319341

>  <r_j_Total_Enthalpy_(au)_298.15K_1.00E+00atm> (1)
-388.240808133448

>  <r_j_Total_Free_Energy_(au)_298.15K_1.00E+00atm> (1)
-388.28270726129

>  <r_lp_tautomer_probability> (1)
1

>  <r_epik_Ionization_Penalty> (1)
  0.0000

>  <r_epik_Ionization_Penalty_Charging> (1)
  0.0000

>  <r_epik_Ionization_Penalty_Neutral> (1)
  0.0000

>  <r_epik_State_Penalty> (1)
  0.0000

>  <r_epik_Charging_Adjusted_Penalty> (1)
0

>  <i_epik_Tot_Q> (1)
0

>  <i_epik_Tot_abs_Q> (1)
0

>  <s_lp_Force_Field> (1)
S-OPLS

>  <r_lp_Energy> (1)
10.6488

>  <b_lp_Chiralities_Consistent> (1)
1

$$$$
