13415_1,2,4-triethylbenzene
                    3D
 Schrodinger Suite 2021-3.
 30 30  0  0  1  0            999 V2000
   -0.5838    1.4506    0.0494 C   0  0  0  0  0  0
   -0.0409    0.0113   -0.0036 C   0  0  0  0  0  0
    1.4719   -0.0296    0.0048 C   0  0  0  0  0  0
    2.2022   -0.0377   -1.1869 C   0  0  0  0  0  0
    3.6022   -0.0231   -1.2142 C   0  0  0  0  0  0
    4.3090    0.0124    0.0047 C   0  0  0  0  0  0
    3.5781    0.0159    1.1992 C   0  0  0  0  0  0
    2.1862   -0.0051    1.2068 C   0  0  0  0  0  0
    5.8242   -0.0196    0.0693 C   0  0  0  0  0  0
    6.3796   -1.4553    0.0743 C   0  0  0  0  0  0
    4.3069    0.0134   -2.5572 C   0  0  0  0  0  0
    4.5883    1.4514   -3.0288 C   0  0  0  0  0  0
   -1.6790    1.4627    0.0458 H   0  0  0  0  0  0
   -0.2316    2.0296   -0.8106 H   0  0  0  0  0  0
   -0.2392    1.9610    0.9547 H   0  0  0  0  0  0
   -0.4297   -0.5527    0.8531 H   0  0  0  0  0  0
   -0.4202   -0.4873   -0.9034 H   0  0  0  0  0  0
    1.6628   -0.0597   -2.1327 H   0  0  0  0  0  0
    4.1167    0.0322    2.1443 H   0  0  0  0  0  0
    1.6495   -0.0008    2.1528 H   0  0  0  0  0  0
    6.2618    0.5379   -0.7651 H   0  0  0  0  0  0
    6.1538    0.4929    0.9806 H   0  0  0  0  0  0
    7.4735   -1.4577    0.1296 H   0  0  0  0  0  0
    6.0828   -1.9963   -0.8300 H   0  0  0  0  0  0
    5.9919   -2.0141    0.9321 H   0  0  0  0  0  0
    5.2457   -0.5486   -2.5190 H   0  0  0  0  0  0
    3.6822   -0.4910   -3.3034 H   0  0  0  0  0  0
    5.0912    1.4586   -4.0017 H   0  0  0  0  0  0
    5.2226    1.9844   -2.3133 H   0  0  0  0  0  0
    3.6543    2.0149   -3.1214 H   0  0  0  0  0  0
  1  2  1  0  0  0
  1 13  1  0  0  0
  1 14  1  0  0  0
  1 15  1  0  0  0
  2  3  1  0  0  0
  2 16  1  0  0  0
  2 17  1  0  0  0
  3  8  1  0  0  0
  3  4  2  0  0  0
  4  5  1  0  0  0
  4 18  1  0  0  0
  5  6  2  0  0  0
  5 11  1  0  0  0
  6  7  1  0  0  0
  6  9  1  0  0  0
  7  8  2  0  0  0
  7 19  1  0  0  0
  8 20  1  0  0  0
  9 10  1  0  0  0
  9 21  1  0  0  0
  9 22  1  0  0  0
 10 23  1  0  0  0
 10 24  1  0  0  0
 10 25  1  0  0  0
 11 12  1  0  0  0
 11 26  1  0  0  0
 11 27  1  0  0  0
 12 28  1  0  0  0
 12 29  1  0  0  0
 12 30  1  0  0  0
M  END
>  <i_m_Spin_multiplicity> (1)
1

>  <s_j_Task> (1)
Single Point

>  <s_j_QM_Method> (1)
DFT(b3lyp-d3)

>  <s_j_QM_Basis> (1)
cc-pvtz(-f)

>  <i_j_Number_of_canonical_orbitals> (1)
430

>  <i_j_Geometry_convergence_category> (1)
3

>  <r_j_Gas_Phase_Energy> (1)
-468.315156215002

>  <r_j_Final_Energy> (1)
-468.315156215002

>  <r_j_HOMO> (1)
-0.229024470001586

>  <r_j_LUMO> (1)
-0.00537881990398789

>  <r_j_Polarizability> (1)
142.19125658527

>  <r_j_QM_Dipole_(debye)> (1)
0.294683965427792

>  <r_j_QM_Dipole_X_(debye)> (1)
0.157697393740344

>  <r_j_QM_Dipole_Y_(debye)> (1)
0.0382631876363961

>  <r_j_QM_Dipole_Z_(debye)> (1)
-0.245979877143747

>  <r_j_Lowest_Frequency_(cm-1)> (1)
75.8927570432712

>  <r_j_Highest_Frequency_(cm-1)> (1)
3121.58137614262

>  <r_j_2nd_Lowest_Frequency_(cm-1)> (1)
88.4918129193897

>  <i_j_Num_Negative_Frequencies> (1)
0

>  <r_j_Zero_Point_Energy_(kcal/mol)> (1)
168.747999576924

>  <r_j_Entropy_(cal/mol/K)_298.15K_1.00E+00atm> (1)
107.202064709839

>  <r_j_Enthalpy_(kcal/mol)_298.15K_1.00E+00atm> (1)
8.33262030329697

>  <r_j_Free_Energy_(kcal/mol)_298.15K_1.00E+00atm> (1)
-23.6296752899415

>  <r_j_Internal_Energy_(kcal/mol)_298.15K_1.00E+00atm> (1)
7.7401347144697

>  <r_j_Heat_Capacity_(cal/mol/K)_298.15K_1.00E+00atm> (1)
48.3792921008179

>  <r_j_ln(Q)_298.15K_1.00E+00atm> (1)
39.8822785491077

>  <r_j_Total_Internal_Energy_(au)_298.15K_1.00E+00atm> (1)
-468.033904468648

>  <r_j_Total_Enthalpy_(au)_298.15K_1.00E+00atm> (1)
-468.032960282756

>  <r_j_Total_Free_Energy_(au)_298.15K_1.00E+00atm> (1)
-468.083895443293

>  <r_lp_tautomer_probability> (1)
1

>  <r_epik_Ionization_Penalty> (1)
  0.0000

>  <r_epik_Ionization_Penalty_Charging> (1)
  0.0000

>  <r_epik_Ionization_Penalty_Neutral> (1)
  0.0000

>  <r_epik_State_Penalty> (1)
  0.0000

>  <r_epik_Charging_Adjusted_Penalty> (1)
0

>  <i_epik_Tot_Q> (1)
0

>  <i_epik_Tot_abs_Q> (1)
0

>  <s_lp_Force_Field> (1)
S-OPLS

>  <r_lp_Energy> (1)
11.845304

>  <b_lp_Chiralities_Consistent> (1)
1

$$$$
