13432_1-Nitro-2-methylnaphthalene
                    3D
 Schrodinger Suite 2021-3.
 23 24  0  0  1  0            999 V2000
   -0.0390    0.0022    0.0000 C   0  0  0  0  0  0
    1.4684    0.0340    0.0000 C   0  0  0  0  0  0
    2.1994    1.1984    0.0000 C   0  0  0  0  0  0
    3.6178    1.2565    0.0000 C   0  0  0  0  0  0
    4.3524    2.4711    0.0000 C   0  0  0  0  0  0
    5.7284    2.4482    0.0000 C   0  0  0  0  0  0
    6.4297    1.2191    0.0000 C   0  0  0  0  0  0
    5.7403    0.0287    0.0000 C   0  0  0  0  0  0
    4.3215    0.0120    0.0000 C   0  0  0  0  0  0
    3.5750   -1.1967    0.0000 C   0  0  0  0  0  0
    2.2027   -1.1841    0.0000 C   0  0  0  0  0  0
    1.4785    2.4877    0.0000 N   0  3  1  0  0  0
    1.2073    2.9792    1.0927 O   0  0  0  0  0  0
    1.2070    2.9790   -1.0927 O   0  5  0  0  0  0
   -0.4852    0.9978    0.0000 H   0  0  0  0  0  0
   -0.4069   -0.5320    0.8825 H   0  0  0  0  0  0
   -0.4069   -0.5319   -0.8825 H   0  0  0  0  0  0
    3.8237    3.4187    0.0000 H   0  0  0  0  0  0
    6.2823    3.3818   -0.0001 H   0  0  0  0  0  0
    7.5154    1.2200    0.0000 H   0  0  0  0  0  0
    6.2727   -0.9187    0.0001 H   0  0  0  0  0  0
    4.1117   -2.1415    0.0000 H   0  0  0  0  0  0
    1.6493   -2.1190   -0.0001 H   0  0  0  0  0  0
  1  2  1  0  0  0
  1 15  1  0  0  0
  1 16  1  0  0  0
  1 17  1  0  0  0
  2 11  1  0  0  0
  2  3  2  0  0  0
  3  4  1  0  0  0
  3 12  1  0  0  0
  4  9  1  0  0  0
  4  5  2  0  0  0
  5  6  1  0  0  0
  5 18  1  0  0  0
  6  7  2  0  0  0
  6 19  1  0  0  0
  7  8  1  0  0  0
  7 20  1  0  0  0
  8  9  2  0  0  0
  8 21  1  0  0  0
  9 10  1  0  0  0
 10 11  2  0  0  0
 10 22  1  0  0  0
 11 23  1  0  0  0
 12 13  2  0  0  0
 12 14  1  0  0  0
M  END
>  <i_m_Spin_multiplicity> (1)
1

>  <s_j_Task> (1)
Single Point

>  <s_j_QM_Method> (1)
DFT(b3lyp-d3)

>  <s_j_QM_Basis> (1)
cc-pvtz(-f)

>  <i_j_Number_of_canonical_orbitals> (1)
393

>  <i_j_Geometry_convergence_category> (1)
0

>  <r_j_Gas_Phase_Energy> (1)
-629.920381860793

>  <r_j_Final_Energy> (1)
-629.920381860793

>  <r_j_HOMO> (1)
-0.233616819580641

>  <r_j_LUMO> (1)
-0.0742025124712632

>  <r_j_Polarizability> (1)
140.430823963411

>  <r_j_QM_Dipole_(debye)> (1)
3.68356647490088

>  <r_j_QM_Dipole_X_(debye)> (1)
1.74081516591872

>  <r_j_QM_Dipole_Y_(debye)> (1)
-3.24626117285689

>  <r_j_QM_Dipole_Z_(debye)> (1)
0.00359593143182716

>  <r_j_Lowest_Frequency_(cm-1)> (1)
58.7530895804671

>  <r_j_Highest_Frequency_(cm-1)> (1)
3156.67288141246

>  <r_j_2nd_Lowest_Frequency_(cm-1)> (1)
106.459979648911

>  <i_j_Num_Negative_Frequencies> (1)
0

>  <r_j_Zero_Point_Energy_(kcal/mol)> (1)
110.678560714223

>  <r_j_Entropy_(cal/mol/K)_298.15K_1.00E+00atm> (1)
102.202210773804

>  <r_j_Enthalpy_(kcal/mol)_298.15K_1.00E+00atm> (1)
7.46963098627189

>  <r_j_Free_Energy_(kcal/mol)_298.15K_1.00E+00atm> (1)
-23.0019581559377

>  <r_j_Internal_Energy_(kcal/mol)_298.15K_1.00E+00atm> (1)
6.87714539744461

>  <r_j_Heat_Capacity_(cal/mol/K)_298.15K_1.00E+00atm> (1)
43.2538531057437

>  <r_j_ln(Q)_298.15K_1.00E+00atm> (1)
38.8228145792816

>  <r_j_Total_Internal_Energy_(au)_298.15K_1.00E+00atm> (1)
-629.733044917317

>  <r_j_Total_Enthalpy_(au)_298.15K_1.00E+00atm> (1)
-629.732100731425

>  <r_j_Total_Free_Energy_(au)_298.15K_1.00E+00atm> (1)
-629.780660300004

>  <r_lp_tautomer_probability> (1)
1

>  <r_epik_Ionization_Penalty> (1)
  0.0000

>  <r_epik_Ionization_Penalty_Charging> (1)
  0.0000

>  <r_epik_Ionization_Penalty_Neutral> (1)
  0.0000

>  <r_epik_State_Penalty> (1)
  0.0000

>  <r_epik_Charging_Adjusted_Penalty> (1)
0

>  <i_epik_Tot_Q> (1)
0

>  <i_epik_Tot_abs_Q> (1)
2

>  <s_lp_Force_Field> (1)
S-OPLS

>  <r_lp_Energy> (1)
24.3716

>  <b_lp_Chiralities_Consistent> (1)
1

$$$$
