13534_3,4-dimethylheptane
                    3D
 Schrodinger Suite 2021-3.
 29 28  0  0  1  0            999 V2000
   -2.6762   -1.2479    2.5827 C   0  0  0  0  0  0
   -2.1216   -0.8319    1.2166 C   0  0  0  0  0  0
   -0.5932   -0.6835    1.2255 C   0  0  0  0  0  0
    0.0116   -0.0915   -0.0647 C   0  0  0  0  0  0
   -0.4247   -0.9160   -1.2896 C   0  0  0  0  0  0
    1.5641    0.0321   -0.0136 C   0  0  0  0  0  0
    2.0961    0.4856    1.3562 C   0  0  0  0  0  0
    2.0780    0.9864   -1.1168 C   0  0  0  0  0  0
    3.5694    0.8404   -1.4385 C   0  0  0  0  0  0
   -3.7652   -1.3595    2.5578 H   0  0  0  0  0  0
   -2.4337   -0.5054    3.3517 H   0  0  0  0  0  0
   -2.2505   -2.2054    2.9047 H   0  0  0  0  0  0
   -2.4271   -1.5704    0.4666 H   0  0  0  0  0  0
   -2.5749    0.1213    0.9098 H   0  0  0  0  0  0
   -0.3247   -0.0484    2.0772 H   0  0  0  0  0  0
   -0.1365   -1.6658    1.4207 H   0  0  0  0  0  0
   -0.3910    0.9288   -0.1737 H   0  0  0  0  0  0
   -0.1686   -1.9733   -1.1457 H   0  0  0  0  0  0
    0.0635   -0.5821   -2.2090 H   0  0  0  0  0  0
   -1.5031   -0.8549   -1.4577 H   0  0  0  0  0  0
    1.9735   -0.9709   -0.2152 H   0  0  0  0  0  0
    1.6320    1.4321    1.6604 H   0  0  0  0  0  0
    3.1777    0.6457    1.3242 H   0  0  0  0  0  0
    1.9035   -0.2505    2.1407 H   0  0  0  0  0  0
    1.5120    0.8293   -2.0413 H   0  0  0  0  0  0
    1.8643    2.0195   -0.8078 H   0  0  0  0  0  0
    3.8701    1.5303   -2.2339 H   0  0  0  0  0  0
    3.7972   -0.1770   -1.7769 H   0  0  0  0  0  0
    4.2022    1.0484   -0.5700 H   0  0  0  0  0  0
  1  2  1  0  0  0
  1 10  1  0  0  0
  1 11  1  0  0  0
  1 12  1  0  0  0
  2  3  1  0  0  0
  2 13  1  0  0  0
  2 14  1  0  0  0
  3  4  1  0  0  0
  3 15  1  0  0  0
  3 16  1  0  0  0
  4  5  1  0  0  0
  4  6  1  0  0  0
  4 17  1  0  0  0
  5 18  1  0  0  0
  5 19  1  0  0  0
  5 20  1  0  0  0
  6  7  1  0  0  0
  6  8  1  0  0  0
  6 21  1  0  0  0
  7 22  1  0  0  0
  7 23  1  0  0  0
  7 24  1  0  0  0
  8  9  1  0  0  0
  8 25  1  0  0  0
  8 26  1  0  0  0
  9 27  1  0  0  0
  9 28  1  0  0  0
  9 29  1  0  0  0
M  END
>  <i_m_Spin_multiplicity> (1)
1

>  <s_j_Task> (1)
Single Point

>  <s_j_QM_Method> (1)
DFT(b3lyp-d3)

>  <s_j_QM_Basis> (1)
cc-pvtz(-f)

>  <i_j_Number_of_canonical_orbitals> (1)
383

>  <i_j_Geometry_convergence_category> (1)
1

>  <r_j_Gas_Phase_Energy> (1)
-355.166184781445

>  <r_j_Final_Energy> (1)
-355.166184781445

>  <r_j_HOMO> (1)
-0.299471532931443

>  <r_j_LUMO> (1)
0.0227058789392277

>  <r_j_Polarizability> (1)
110.811327776354

>  <r_j_QM_Dipole_(debye)> (1)
0.0903971722133492

>  <r_j_QM_Dipole_X_(debye)> (1)
-0.0522183787411753

>  <r_j_QM_Dipole_Y_(debye)> (1)
0.0376417642723584

>  <r_j_QM_Dipole_Z_(debye)> (1)
-0.0634664261501882

>  <r_j_Lowest_Frequency_(cm-1)> (1)
66.8821340952461

>  <r_j_Highest_Frequency_(cm-1)> (1)
3065.77906081766

>  <r_j_2nd_Lowest_Frequency_(cm-1)> (1)
114.853933191551

>  <i_j_Num_Negative_Frequencies> (1)
0

>  <r_j_Zero_Point_Energy_(kcal/mol)> (1)
171.745598043798

>  <r_j_Entropy_(cal/mol/K)_298.15K_1.00E+00atm> (1)
101.181476760569

>  <r_j_Enthalpy_(kcal/mol)_298.15K_1.00E+00atm> (1)
7.73114453506599

>  <r_j_Free_Energy_(kcal/mol)_298.15K_1.00E+00atm> (1)
-22.4361127610977

>  <r_j_Internal_Energy_(kcal/mol)_298.15K_1.00E+00atm> (1)
7.13865894623871

>  <r_j_Heat_Capacity_(cal/mol/K)_298.15K_1.00E+00atm> (1)
43.9327664486676

>  <r_j_ln(Q)_298.15K_1.00E+00atm> (1)
37.867778025633

>  <r_j_Total_Internal_Energy_(au)_298.15K_1.00E+00atm> (1)
-354.881114570489

>  <r_j_Total_Enthalpy_(au)_298.15K_1.00E+00atm> (1)
-354.880170384597

>  <r_j_Total_Free_Energy_(au)_298.15K_1.00E+00atm> (1)
-354.928244969505

>  <r_lp_tautomer_probability> (1)
1

>  <r_epik_Ionization_Penalty> (1)
  0.0000

>  <r_epik_Ionization_Penalty_Charging> (1)
  0.0000

>  <r_epik_Ionization_Penalty_Neutral> (1)
  0.0000

>  <r_epik_State_Penalty> (1)
  0.0000

>  <r_epik_Charging_Adjusted_Penalty> (1)
0

>  <i_epik_Tot_Q> (1)
0

>  <i_epik_Tot_abs_Q> (1)
0

>  <s_lp_Force_Field> (1)
S-OPLS

>  <r_lp_Energy> (1)
8.55953

>  <b_lp_Chiralities_Consistent> (1)
1

$$$$
