13539_2-Hydroxypropyl methacrylate
                    3D
 Schrodinger Suite 2021-3.
 22 21  0  0  1  0            999 V2000
   -0.6558    1.4406   -0.0816 C   0  0  0  0  0  0
   -0.0095    0.0651    0.0064 C   0  0  0  0  0  0
    1.5095    0.1637   -0.0159 C   0  0  0  0  0  0
    2.0040   -1.1938    0.0558 O   0  0  0  0  0  0
    3.3484   -1.3406   -0.0472 C   0  0  0  0  0  0
    4.1053   -0.4001   -0.1851 O   0  0  0  0  0  0
    3.8055   -2.7616    0.0272 C   0  0  0  0  0  0
    2.9448   -3.7620    0.2527 C   0  0  0  0  0  0
    5.2877   -2.9473   -0.1575 C   0  0  0  0  0  0
   -0.4738   -0.6932   -1.1053 O   0  0  0  0  0  0
   -0.3746    2.0642    0.7726 H   0  0  0  0  0  0
   -1.7433    1.3351   -0.0951 H   0  0  0  0  0  0
   -0.3508    1.9434   -1.0047 H   0  0  0  0  0  0
   -0.3041   -0.4205    0.9525 H   0  0  0  0  0  0
    1.8575    0.6256   -0.9450 H   0  0  0  0  0  0
    1.9001    0.7395    0.8293 H   0  0  0  0  0  0
    1.8851   -3.5816    0.3898 H   0  0  0  0  0  0
    3.2871   -4.7909    0.3120 H   0  0  0  0  0  0
    5.8435   -2.3795    0.5954 H   0  0  0  0  0  0
    5.6076   -2.5612   -1.1309 H   0  0  0  0  0  0
    5.5645   -4.0017   -0.0853 H   0  0  0  0  0  0
    0.0228   -1.5235   -1.1040 H   0  0  0  0  0  0
  1  2  1  0  0  0
  1 11  1  0  0  0
  1 12  1  0  0  0
  1 13  1  0  0  0
  2  3  1  0  0  0
  2 10  1  0  0  0
  2 14  1  0  0  0
  3  4  1  0  0  0
  3 15  1  0  0  0
  3 16  1  0  0  0
  4  5  1  0  0  0
  5  6  2  0  0  0
  5  7  1  0  0  0
  7  8  2  0  0  0
  7  9  1  0  0  0
  8 17  1  0  0  0
  8 18  1  0  0  0
  9 19  1  0  0  0
  9 20  1  0  0  0
  9 21  1  0  0  0
 10 22  1  0  0  0
M  END
>  <i_m_Spin_multiplicity> (1)
1

>  <s_j_Task> (1)
Single Point

>  <s_j_QM_Method> (1)
DFT(b3lyp-d3)

>  <s_j_QM_Basis> (1)
cc-pvtz(-f)

>  <i_j_Number_of_canonical_orbitals> (1)
336

>  <i_j_Geometry_convergence_category> (1)
0

>  <r_j_Gas_Phase_Energy> (1)
-499.831423395712

>  <r_j_Final_Energy> (1)
-499.831423395712

>  <r_j_HOMO> (1)
-0.282411018837148

>  <r_j_LUMO> (1)
-0.0710047534632516

>  <r_j_Polarizability> (1)
95.0874538598037

>  <r_j_QM_Dipole_(debye)> (1)
1.88093342016544

>  <r_j_QM_Dipole_X_(debye)> (1)
-0.174952279507838

>  <r_j_QM_Dipole_Y_(debye)> (1)
-1.47277432635135

>  <r_j_QM_Dipole_Z_(debye)> (1)
1.15682237816814

>  <r_j_Lowest_Frequency_(cm-1)> (1)
66.6075051959611

>  <r_j_Highest_Frequency_(cm-1)> (1)
3746.83107867738

>  <r_j_2nd_Lowest_Frequency_(cm-1)> (1)
78.2917645793912

>  <i_j_Num_Negative_Frequencies> (1)
0

>  <r_j_Zero_Point_Energy_(kcal/mol)> (1)
115.739691469349

>  <r_j_Entropy_(cal/mol/K)_298.15K_1.00E+00atm> (1)
101.231863877323

>  <r_j_Enthalpy_(kcal/mol)_298.15K_1.00E+00atm> (1)
7.46841046388934

>  <r_j_Free_Energy_(kcal/mol)_298.15K_1.00E+00atm> (1)
-22.7138697511347

>  <r_j_Internal_Energy_(kcal/mol)_298.15K_1.00E+00atm> (1)
6.87592487506206

>  <r_j_Heat_Capacity_(cal/mol/K)_298.15K_1.00E+00atm> (1)
40.7262093997647

>  <r_j_ln(Q)_298.15K_1.00E+00atm> (1)
38.3365775969217

>  <r_j_Total_Internal_Energy_(au)_298.15K_1.00E+00atm> (1)
-499.636022971963

>  <r_j_Total_Enthalpy_(au)_298.15K_1.00E+00atm> (1)
-499.635078786071

>  <r_j_Total_Free_Energy_(au)_298.15K_1.00E+00atm> (1)
-499.683177311524

>  <r_lp_tautomer_probability> (1)
1

>  <r_epik_Ionization_Penalty> (1)
  0.0000

>  <r_epik_Ionization_Penalty_Charging> (1)
  0.0000

>  <r_epik_Ionization_Penalty_Neutral> (1)
  0.0000

>  <r_epik_State_Penalty> (1)
  0.0000

>  <r_epik_Charging_Adjusted_Penalty> (1)
0

>  <i_epik_Tot_Q> (1)
0

>  <i_epik_Tot_abs_Q> (1)
0

>  <s_lp_Force_Field> (1)
S-OPLS

>  <r_lp_Energy> (1)
0.694847

>  <b_lp_Chiralities_Consistent> (1)
1

>  <s_epik_Chemistry_Notes> (1)
This compound has an ester and may undergo hydrolysis at high or low pH.

$$$$
