13543_N-Methylolacrylamide
                    3D
 Schrodinger Suite 2021-3.
 14 13  0  0  1  0            999 V2000
   -2.9274    1.8499    0.1849 C   0  0  0  0  0  0
   -2.1497    0.7860   -0.0205 C   0  0  0  0  0  0
   -0.6638    0.9139    0.0101 C   0  0  0  0  0  0
   -0.0826    1.9874    0.1817 O   0  0  0  0  0  0
    0.0366   -0.2481   -0.1887 N   0  0  0  0  0  0
    1.4892   -0.2090   -0.0514 C   0  0  0  0  0  0
    1.9235    0.1452    1.2378 O   0  0  0  0  0  0
   -2.4752    2.8184    0.3763 H   0  0  0  0  0  0
   -4.0100    1.7820    0.1649 H   0  0  0  0  0  0
   -2.5773   -0.1952   -0.2185 H   0  0  0  0  0  0
   -0.4386   -1.1281   -0.0446 H   0  0  0  0  0  0
    1.8739   -1.2087   -0.2646 H   0  0  0  0  0  0
    1.8638    0.4900   -0.8088 H   0  0  0  0  0  0
    1.6593    1.0722    1.3484 H   0  0  0  0  0  0
  1  2  2  0  0  0
  1  8  1  0  0  0
  1  9  1  0  0  0
  2  3  1  0  0  0
  2 10  1  0  0  0
  3  4  2  0  0  0
  3  5  1  0  0  0
  5  6  1  0  0  0
  5 11  1  0  0  0
  6  7  1  0  0  0
  6 12  1  0  0  0
  6 13  1  0  0  0
  7 14  1  0  0  0
M  END
>  <i_m_Spin_multiplicity> (1)
1

>  <s_j_Task> (1)
Single Point

>  <s_j_QM_Method> (1)
DFT(b3lyp-d3)

>  <s_j_QM_Basis> (1)
cc-pvtz(-f)

>  <i_j_Number_of_canonical_orbitals> (1)
223

>  <i_j_Geometry_convergence_category> (1)
0

>  <r_j_Gas_Phase_Energy> (1)
-361.966962748916

>  <r_j_Final_Energy> (1)
-361.966962748916

>  <r_j_HOMO> (1)
-0.266077194383573

>  <r_j_LUMO> (1)
-0.0512870752441963

>  <r_j_Polarizability> (1)
62.9966756679866

>  <r_j_QM_Dipole_(debye)> (1)
3.22746573757801

>  <r_j_QM_Dipole_X_(debye)> (1)
-2.16243354888297

>  <r_j_QM_Dipole_Y_(debye)> (1)
-2.16336229206296

>  <r_j_QM_Dipole_Z_(debye)> (1)
-1.02969890122573

>  <r_j_Lowest_Frequency_(cm-1)> (1)
95.7517113399998

>  <r_j_Highest_Frequency_(cm-1)> (1)
3708.47518722694

>  <r_j_2nd_Lowest_Frequency_(cm-1)> (1)
142.717267491045

>  <i_j_Num_Negative_Frequencies> (1)
0

>  <r_j_Zero_Point_Energy_(kcal/mol)> (1)
70.9764003967862

>  <r_j_Entropy_(cal/mol/K)_298.15K_1.00E+00atm> (1)
83.0611774054397

>  <r_j_Enthalpy_(kcal/mol)_298.15K_1.00E+00atm> (1)
5.12170723032512

>  <r_j_Free_Energy_(kcal/mol)_298.15K_1.00E+00atm> (1)
-19.6429828131067

>  <r_j_Internal_Energy_(kcal/mol)_298.15K_1.00E+00atm> (1)
4.52922164149785

>  <r_j_Heat_Capacity_(cal/mol/K)_298.15K_1.00E+00atm> (1)
25.9310026634839

>  <r_j_ln(Q)_298.15K_1.00E+00atm> (1)
33.1535199902275

>  <r_j_Total_Internal_Energy_(au)_298.15K_1.00E+00atm> (1)
-361.846636880307

>  <r_j_Total_Enthalpy_(au)_298.15K_1.00E+00atm> (1)
-361.845692694415

>  <r_j_Total_Free_Energy_(au)_298.15K_1.00E+00atm> (1)
-361.885157740326

>  <r_lp_tautomer_probability> (1)
1

>  <r_epik_Ionization_Penalty> (1)
  0.0000

>  <r_epik_Ionization_Penalty_Charging> (1)
  0.0000

>  <r_epik_Ionization_Penalty_Neutral> (1)
  0.0000

>  <r_epik_State_Penalty> (1)
  0.0000

>  <r_epik_Charging_Adjusted_Penalty> (1)
0

>  <i_epik_Tot_Q> (1)
0

>  <i_epik_Tot_abs_Q> (1)
0

>  <s_lp_Force_Field> (1)
S-OPLS

>  <r_lp_Energy> (1)
-6.63547

>  <b_lp_Chiralities_Consistent> (1)
1

>  <s_epik_Chemistry_Notes> (1)
This compound contains an acetal/aminal-like group ( X-CH(R)-Y where X, Y are N, S, or O) that may be acid/base labile, releasing an aldehyde.

$$$$
