135442_Ethenylphenol
                    3D
 Schrodinger Suite 2021-3.
 17 17  0  0  1  0            999 V2000
   -0.7837    1.1019    0.0001 C   0  0  0  0  0  0
    0.0248    0.0339   -0.0001 C   0  0  0  0  0  0
    1.4964    0.0359   -0.0001 C   0  0  0  0  0  0
    2.2655    1.2113   -0.0001 C   0  0  0  0  0  0
    3.6560    1.1856    0.0000 C   0  0  0  0  0  0
    4.3233   -0.0405    0.0000 C   0  0  0  0  0  0
    3.5930   -1.2253    0.0001 C   0  0  0  0  0  0
    2.1954   -1.1920    0.0000 C   0  0  0  0  0  0
    1.4556   -2.3448    0.0000 O   0  0  0  0  0  0
   -0.4178    2.1244    0.0003 H   0  0  0  0  0  0
   -1.8617    0.9788    0.0001 H   0  0  0  0  0  0
   -0.4285   -0.9531   -0.0003 H   0  0  0  0  0  0
    1.7566    2.1696   -0.0001 H   0  0  0  0  0  0
    4.2170    2.1148   -0.0001 H   0  0  0  0  0  0
    5.4086   -0.0771    0.0001 H   0  0  0  0  0  0
    4.1039   -2.1862    0.0001 H   0  0  0  0  0  0
    2.0534   -3.1030    0.0000 H   0  0  0  0  0  0
  1  2  2  0  0  0
  1 10  1  0  0  0
  1 11  1  0  0  0
  2  3  1  0  0  0
  2 12  1  0  0  0
  3  8  1  0  0  0
  3  4  2  0  0  0
  4  5  1  0  0  0
  4 13  1  0  0  0
  5  6  2  0  0  0
  5 14  1  0  0  0
  6  7  1  0  0  0
  6 15  1  0  0  0
  7  8  2  0  0  0
  7 16  1  0  0  0
  8  9  1  0  0  0
  9 17  1  0  0  0
M  END
>  <i_m_Spin_multiplicity> (1)
1

>  <s_j_Task> (1)
Single Point

>  <s_j_QM_Method> (1)
DFT(b3lyp-d3)

>  <s_j_QM_Basis> (1)
cc-pvtz(-f)

>  <i_j_Number_of_canonical_orbitals> (1)
273

>  <i_j_Geometry_convergence_category> (1)
0

>  <r_j_Gas_Phase_Energy> (1)
-385.008026113254

>  <r_j_Final_Energy> (1)
-385.008026113254

>  <r_j_HOMO> (1)
-0.219989101709113

>  <r_j_LUMO> (1)
-0.0427971863372801

>  <r_j_Polarizability> (1)
97.5422888689397

>  <r_j_QM_Dipole_(debye)> (1)
1.59029756375471

>  <r_j_QM_Dipole_X_(debye)> (1)
1.2844297547654

>  <r_j_QM_Dipole_Y_(debye)> (1)
-0.937702802608192

>  <r_j_QM_Dipole_Z_(debye)> (1)
-1.83896171053995e-05

>  <r_j_Lowest_Frequency_(cm-1)> (1)
100.425434014627

>  <r_j_Highest_Frequency_(cm-1)> (1)
3778.14742321136

>  <r_j_2nd_Lowest_Frequency_(cm-1)> (1)
178.279154162967

>  <i_j_Num_Negative_Frequencies> (1)
0

>  <r_j_Zero_Point_Energy_(kcal/mol)> (1)
86.0475125097654

>  <r_j_Entropy_(cal/mol/K)_298.15K_1.00E+00atm> (1)
85.4553768301839

>  <r_j_Enthalpy_(kcal/mol)_298.15K_1.00E+00atm> (1)
5.38748000457937

>  <r_j_Free_Energy_(kcal/mol)_298.15K_1.00E+00atm> (1)
-20.09104059734

>  <r_j_Internal_Energy_(kcal/mol)_298.15K_1.00E+00atm> (1)
4.79499441575209

>  <r_j_Heat_Capacity_(cal/mol/K)_298.15K_1.00E+00atm> (1)
30.2467676626818

>  <r_j_ln(Q)_298.15K_1.00E+00atm> (1)
33.9097540534391

>  <r_j_Total_Internal_Energy_(au)_298.15K_1.00E+00atm> (1)
-384.863259362682

>  <r_j_Total_Enthalpy_(au)_298.15K_1.00E+00atm> (1)
-384.862315176789

>  <r_j_Total_Free_Energy_(au)_298.15K_1.00E+00atm> (1)
-384.902917784112

>  <r_epik_Ionization_Penalty> (1)
  0.0009

>  <r_epik_Ionization_Penalty_Charging> (1)
  0.0000

>  <r_epik_Ionization_Penalty_Neutral> (1)
  0.0009

>  <r_epik_State_Penalty> (1)
  0.0005

>  <r_epik_Charging_Adjusted_Penalty> (1)
0.000549803211102943

>  <i_epik_Tot_Q> (1)
0

>  <i_epik_Tot_abs_Q> (1)
0

>  <s_lp_Force_Field> (1)
S-OPLS

>  <r_lp_Energy> (1)
12.010479

>  <b_lp_Chiralities_Consistent> (1)
1

$$$$
