13558_3,5-dimethylheptane
                    3D
 Schrodinger Suite 2021-3.
 29 28  0  0  1  0            999 V2000
   -2.2485   -0.7021   -1.2157 C   0  0  0  0  0  0
   -0.7156   -0.7078   -1.1975 C   0  0  0  0  0  0
   -0.0846    0.0626   -0.0215 C   0  0  0  0  0  0
   -0.5077    1.5402   -0.0111 C   0  0  0  0  0  0
    1.4562   -0.0280   -0.0352 C   0  0  0  0  0  0
    2.0811   -1.4381   -0.0096 C   0  0  0  0  0  0
    1.5585   -2.2745    1.1680 C   0  0  0  0  0  0
    3.6219   -1.3695    0.0357 C   0  0  0  0  0  0
    4.2765   -0.6910   -1.1727 C   0  0  0  0  0  0
   -2.6339   -1.3497   -2.0100 H   0  0  0  0  0  0
   -2.6542    0.3000   -1.3847 H   0  0  0  0  0  0
   -2.6528   -1.0675   -0.2642 H   0  0  0  0  0  0
   -0.3743   -1.7492   -1.1679 H   0  0  0  0  0  0
   -0.3327   -0.2897   -2.1399 H   0  0  0  0  0  0
   -0.4517   -0.3919    0.9100 H   0  0  0  0  0  0
   -0.2252    2.0318   -0.9507 H   0  0  0  0  0  0
   -0.0189    2.0819    0.8060 H   0  0  0  0  0  0
   -1.5876    1.6583    0.1160 H   0  0  0  0  0  0
    1.8140    0.5076   -0.9246 H   0  0  0  0  0  0
    1.8428    0.5308    0.8303 H   0  0  0  0  0  0
    1.8105   -1.9561   -0.9412 H   0  0  0  0  0  0
    1.7570   -1.7687    2.1211 H   0  0  0  0  0  0
    2.0486   -3.2536    1.2029 H   0  0  0  0  0  0
    0.4804   -2.4480    1.1029 H   0  0  0  0  0  0
    3.9284   -0.8554    0.9582 H   0  0  0  0  0  0
    4.0096   -2.3936    0.1181 H   0  0  0  0  0  0
    5.3672   -0.7738   -1.1249 H   0  0  0  0  0  0
    4.0322    0.3741   -1.2294 H   0  0  0  0  0  0
    3.9485   -1.1569   -2.1094 H   0  0  0  0  0  0
  1  2  1  0  0  0
  1 10  1  0  0  0
  1 11  1  0  0  0
  1 12  1  0  0  0
  2  3  1  0  0  0
  2 13  1  0  0  0
  2 14  1  0  0  0
  3  4  1  0  0  0
  3  5  1  0  0  0
  3 15  1  0  0  0
  4 16  1  0  0  0
  4 17  1  0  0  0
  4 18  1  0  0  0
  5  6  1  0  0  0
  5 19  1  0  0  0
  5 20  1  0  0  0
  6  7  1  0  0  0
  6  8  1  0  0  0
  6 21  1  0  0  0
  7 22  1  0  0  0
  7 23  1  0  0  0
  7 24  1  0  0  0
  8  9  1  0  0  0
  8 25  1  0  0  0
  8 26  1  0  0  0
  9 27  1  0  0  0
  9 28  1  0  0  0
  9 29  1  0  0  0
M  END
>  <i_m_Spin_multiplicity> (1)
1

>  <s_j_Task> (1)
Single Point

>  <s_j_QM_Method> (1)
DFT(b3lyp-d3)

>  <s_j_QM_Basis> (1)
cc-pvtz(-f)

>  <i_j_Number_of_canonical_orbitals> (1)
383

>  <i_j_Geometry_convergence_category> (1)
3

>  <r_j_Gas_Phase_Energy> (1)
-355.16961437136

>  <r_j_Final_Energy> (1)
-355.16961437136

>  <r_j_HOMO> (1)
-0.303556925759855

>  <r_j_LUMO> (1)
0.0247596921819873

>  <r_j_Polarizability> (1)
110.223306867834

>  <r_j_QM_Dipole_(debye)> (1)
0.122203303178897

>  <r_j_QM_Dipole_X_(debye)> (1)
0.0253701666581066

>  <r_j_QM_Dipole_Y_(debye)> (1)
-0.117444157664222

>  <r_j_QM_Dipole_Z_(debye)> (1)
-0.0222906209450223

>  <r_j_Lowest_Frequency_(cm-1)> (1)
69.2472919481388

>  <r_j_Highest_Frequency_(cm-1)> (1)
3060.17164999056

>  <r_j_2nd_Lowest_Frequency_(cm-1)> (1)
124.410231612002

>  <i_j_Num_Negative_Frequencies> (1)
0

>  <r_j_Zero_Point_Energy_(kcal/mol)> (1)
171.758859378704

>  <r_j_Entropy_(cal/mol/K)_298.15K_1.00E+00atm> (1)
101.058881787047

>  <r_j_Enthalpy_(kcal/mol)_298.15K_1.00E+00atm> (1)
7.71800528086851

>  <r_j_Free_Energy_(kcal/mol)_298.15K_1.00E+00atm> (1)
-22.4127003239396

>  <r_j_Internal_Energy_(kcal/mol)_298.15K_1.00E+00atm> (1)
7.12551969204124

>  <r_j_Heat_Capacity_(cal/mol/K)_298.15K_1.00E+00atm> (1)
43.8958071832776

>  <r_j_ln(Q)_298.15K_1.00E+00atm> (1)
37.828262402638

>  <r_j_Total_Internal_Energy_(au)_298.15K_1.00E+00atm> (1)
-354.884543965856

>  <r_j_Total_Enthalpy_(au)_298.15K_1.00E+00atm> (1)
-354.883599779964

>  <r_j_Total_Free_Energy_(au)_298.15K_1.00E+00atm> (1)
-354.931616116043

>  <r_lp_tautomer_probability> (1)
1

>  <r_epik_Ionization_Penalty> (1)
  0.0000

>  <r_epik_Ionization_Penalty_Charging> (1)
  0.0000

>  <r_epik_Ionization_Penalty_Neutral> (1)
  0.0000

>  <r_epik_State_Penalty> (1)
  0.0000

>  <r_epik_Charging_Adjusted_Penalty> (1)
0

>  <i_epik_Tot_Q> (1)
0

>  <i_epik_Tot_abs_Q> (1)
0

>  <s_lp_Force_Field> (1)
S-OPLS

>  <r_lp_Energy> (1)
5.74591

>  <b_lp_Chiralities_Consistent> (1)
1

$$$$
