135738785_Par
                    3D
 Schrodinger Suite 2021-3.
 25 26  0  0  1  0            999 V2000
   -3.9798    1.8867    1.0001 C   0  0  0  0  0  0
   -4.5965    1.2771   -0.0919 C   0  0  0  0  0  0
   -3.7872    0.6289   -1.0307 C   0  0  0  0  0  0
   -2.4595    0.5417   -0.9403 N   0  0  0  0  0  0
   -1.8801    1.1194    0.1219 C   0  0  0  0  0  0
   -2.5947    1.8187    1.1055 C   0  0  0  0  0  0
   -0.4727    1.0910    0.3049 N   0  0  0  0  0  0
    0.1194    0.1908   -0.3536 N   0  0  0  0  0  0
    1.5141    0.1818   -0.2060 C   0  0  0  0  0  0
    2.2129   -0.8639   -0.8537 C   0  0  0  0  0  0
    3.6078   -0.9341   -0.7611 C   0  0  0  0  0  0
    4.3113    0.0263   -0.0326 C   0  0  0  0  0  0
    3.6312    1.0707    0.6155 C   0  0  0  0  0  0
    2.2549    1.1339    0.5221 C   0  0  0  0  0  0
    5.6666    0.0048    0.0866 O   0  0  0  0  0  0
    1.4992   -1.7821   -1.5481 O   0  0  0  0  0  0
   -4.5659    2.4093    1.7504 H   0  0  0  0  0  0
   -5.6731    1.3095   -0.2250 H   0  0  0  0  0  0
   -4.2365    0.1607   -1.9055 H   0  0  0  0  0  0
   -2.0523    2.2774    1.9248 H   0  0  0  0  0  0
    4.1410   -1.7423   -1.2589 H   0  0  0  0  0  0
    4.2040    1.8042    1.1714 H   0  0  0  0  0  0
    1.6999    1.9277    1.0089 H   0  0  0  0  0  0
    6.0258   -0.7490   -0.3999 H   0  0  0  0  0  0
    2.1037   -2.4249   -1.9418 H   0  0  0  0  0  0
  1  6  1  0  0  0
  1  2  2  0  0  0
  1 17  1  0  0  0
  2  3  1  0  0  0
  2 18  1  0  0  0
  3  4  2  0  0  0
  3 19  1  0  0  0
  4  5  1  0  0  0
  5  6  2  0  0  0
  5  7  1  0  0  0
  6 20  1  0  0  0
  7  8  2  0  0  0
  8  9  1  0  0  0
  9 14  1  0  0  0
  9 10  2  0  0  0
 10 11  1  0  0  0
 10 16  1  0  0  0
 11 12  2  0  0  0
 11 21  1  0  0  0
 12 13  1  0  0  0
 12 15  1  0  0  0
 13 14  2  0  0  0
 13 22  1  0  0  0
 14 23  1  0  0  0
 15 24  1  0  0  0
 16 25  1  0  0  0
M  END
>  <i_m_Spin_multiplicity> (1)
1

>  <s_j_Task> (1)
Single Point

>  <s_j_QM_Method> (1)
DFT(b3lyp-d3)

>  <s_j_QM_Basis> (1)
cc-pvtz(-f)

>  <i_j_Number_of_canonical_orbitals> (1)
441

>  <i_j_Geometry_convergence_category> (1)
0

>  <r_j_Gas_Phase_Energy> (1)
-739.488714468519

>  <r_j_Final_Energy> (1)
-739.488714468519

>  <r_j_HOMO> (1)
-0.214756991619468

>  <r_j_LUMO> (1)
-0.0803718505923635

>  <r_j_Polarizability> (1)
188.587230029536

>  <r_j_QM_Dipole_(debye)> (1)
2.19773989514285

>  <r_j_QM_Dipole_X_(debye)> (1)
1.7653482109097

>  <r_j_QM_Dipole_Y_(debye)> (1)
-1.30890891602493

>  <r_j_QM_Dipole_Z_(debye)> (1)
-0.0190732926067189

>  <r_j_Lowest_Frequency_(cm-1)> (1)
61.6496241857626

>  <r_j_Highest_Frequency_(cm-1)> (1)
3768.56884596469

>  <r_j_2nd_Lowest_Frequency_(cm-1)> (1)
69.2176770076025

>  <i_j_Num_Negative_Frequencies> (1)
0

>  <r_j_Zero_Point_Energy_(kcal/mol)> (1)
116.93966709164

>  <r_j_Entropy_(cal/mol/K)_298.15K_1.00E+00atm> (1)
109.673782853424

>  <r_j_Enthalpy_(kcal/mol)_298.15K_1.00E+00atm> (1)
8.45327938269346

>  <r_j_Free_Energy_(kcal/mol)_298.15K_1.00E+00atm> (1)
-24.2459589750549

>  <r_j_Internal_Energy_(kcal/mol)_298.15K_1.00E+00atm> (1)
7.86079379386618

>  <r_j_Heat_Capacity_(cal/mol/K)_298.15K_1.00E+00atm> (1)
50.4959281227055

>  <r_j_ln(Q)_298.15K_1.00E+00atm> (1)
40.9224450894169

>  <r_j_Total_Internal_Energy_(au)_298.15K_1.00E+00atm> (1)
-739.289832273346

>  <r_j_Total_Enthalpy_(au)_298.15K_1.00E+00atm> (1)
-739.288888087454

>  <r_j_Total_Free_Energy_(au)_298.15K_1.00E+00atm> (1)
-739.340997641048

>  <r_epik_Ionization_Penalty> (1)
  0.0874

>  <r_epik_Ionization_Penalty_Charging> (1)
  0.0000

>  <r_epik_Ionization_Penalty_Neutral> (1)
  0.0874

>  <r_epik_State_Penalty> (1)
  0.0758

>  <r_epik_Charging_Adjusted_Penalty> (1)
0.0758449677244891

>  <i_epik_Tot_Q> (1)
0

>  <i_epik_Tot_abs_Q> (1)
0

>  <s_lp_Force_Field> (1)
S-OPLS

>  <r_lp_Energy> (1)
29.432664

>  <b_lp_Chiralities_Consistent> (1)
1

$$$$
