13587_3-methyl-furan
                    3D
 Schrodinger Suite 2021-3.
 12 12  0  0  1  0            999 V2000
    0.0048    0.0180    0.0000 C   0  0  0  0  0  0
    1.5036    0.0205    0.0000 C   0  0  0  0  0  0
    2.3297    1.1041    0.0000 C   0  0  0  0  0  0
    3.6426    0.7242    0.0000 O   0  0  0  0  0  0
    3.6505   -0.6388    0.0000 C   0  0  0  0  0  0
    2.3799   -1.1228    0.0000 C   0  0  0  0  0  0
   -0.3932    1.0369    0.0000 H   0  0  0  0  0  0
   -0.3939   -0.4966    0.8819 H   0  0  0  0  0  0
   -0.3939   -0.4965   -0.8819 H   0  0  0  0  0  0
    2.1447    2.1673    0.0000 H   0  0  0  0  0  0
    4.6236   -1.1055    0.0000 H   0  0  0  0  0  0
    2.0890   -2.1637    0.0000 H   0  0  0  0  0  0
  1  2  1  0  0  0
  1  7  1  0  0  0
  1  8  1  0  0  0
  1  9  1  0  0  0
  2  6  1  0  0  0
  2  3  2  0  0  0
  3  4  1  0  0  0
  3 10  1  0  0  0
  4  5  1  0  0  0
  5  6  2  0  0  0
  5 11  1  0  0  0
  6 12  1  0  0  0
M  END
>  <i_m_Spin_multiplicity> (1)
1

>  <s_j_Task> (1)
Single Point

>  <s_j_QM_Method> (1)
DFT(b3lyp-d3)

>  <s_j_QM_Basis> (1)
cc-pvtz(-f)

>  <i_j_Number_of_canonical_orbitals> (1)
190

>  <i_j_Geometry_convergence_category> (1)
0

>  <r_j_Gas_Phase_Energy> (1)
-269.436937397937

>  <r_j_Final_Energy> (1)
-269.436937397937

>  <r_j_HOMO> (1)
-0.228559990936686

>  <r_j_LUMO> (1)
0.00686384193504583

>  <r_j_Polarizability> (1)
56.3888119084183

>  <r_j_QM_Dipole_(debye)> (1)
0.942735248917479

>  <r_j_QM_Dipole_X_(debye)> (1)
-0.826314582174185

>  <r_j_QM_Dipole_Y_(debye)> (1)
-0.453821505650175

>  <r_j_QM_Dipole_Z_(debye)> (1)
-4.29791757707023e-05

>  <r_j_Lowest_Frequency_(cm-1)> (1)
224.85376153991

>  <r_j_Highest_Frequency_(cm-1)> (1)
3230.88038801261

>  <r_j_2nd_Lowest_Frequency_(cm-1)> (1)
278.01762260139

>  <i_j_Num_Negative_Frequencies> (1)
0

>  <r_j_Zero_Point_Energy_(kcal/mol)> (1)
61.0263044995144

>  <r_j_Entropy_(cal/mol/K)_298.15K_1.00E+00atm> (1)
72.2509010776717

>  <r_j_Enthalpy_(kcal/mol)_298.15K_1.00E+00atm> (1)
3.8144868970058

>  <r_j_Free_Energy_(kcal/mol)_298.15K_1.00E+00atm> (1)
-17.727119259302

>  <r_j_Internal_Energy_(kcal/mol)_298.15K_1.00E+00atm> (1)
3.22200130817853

>  <r_j_Heat_Capacity_(cal/mol/K)_298.15K_1.00E+00atm> (1)
19.1002578734257

>  <r_j_ln(Q)_298.15K_1.00E+00atm> (1)
29.9199163550794

>  <r_j_Total_Internal_Energy_(au)_298.15K_1.00E+00atm> (1)
-269.334551204773

>  <r_j_Total_Enthalpy_(au)_298.15K_1.00E+00atm> (1)
-269.333607018881

>  <r_j_Total_Free_Energy_(au)_298.15K_1.00E+00atm> (1)
-269.367935753643

>  <r_lp_tautomer_probability> (1)
1

>  <r_epik_Ionization_Penalty> (1)
  0.0000

>  <r_epik_Ionization_Penalty_Charging> (1)
  0.0000

>  <r_epik_Ionization_Penalty_Neutral> (1)
  0.0000

>  <r_epik_State_Penalty> (1)
  0.0000

>  <r_epik_Charging_Adjusted_Penalty> (1)
0

>  <i_epik_Tot_Q> (1)
0

>  <i_epik_Tot_abs_Q> (1)
0

>  <s_lp_Force_Field> (1)
S-OPLS

>  <r_lp_Energy> (1)
-1.211034

>  <b_lp_Chiralities_Consistent> (1)
1

$$$$
