136101_Bicyclo[3.3.1]nonane
                    3D
 Schrodinger Suite 2021-3.
 25 26  0  0  1  0            999 V2000
    0.1734   -0.9480    1.6004 C   0  0  0  0  0  0
   -1.2235   -0.3523    1.3298 C   0  0  0  0  0  0
   -1.3435    0.4144   -0.0071 C   0  0  0  0  0  0
   -0.5680    1.7502   -0.0688 C   0  0  0  0  0  0
    0.9666    1.5960   -0.0912 C   0  0  0  0  0  0
    1.4423    0.4769   -1.0400 C   0  0  0  0  0  0
    0.6170   -0.8274   -0.9548 C   0  0  0  0  0  0
    0.7864   -1.6260    0.3579 C   0  0  0  0  0  0
   -0.8731   -0.4963   -1.1558 C   0  0  0  0  0  0
    0.1048   -1.6785    2.4158 H   0  0  0  0  0  0
    0.8450   -0.1658    1.9643 H   0  0  0  0  0  0
   -1.9548   -1.1723    1.3030 H   0  0  0  0  0  0
   -1.5187    0.2960    2.1645 H   0  0  0  0  0  0
   -2.4066    0.6511   -0.1495 H   0  0  0  0  0  0
   -0.8815    2.2682   -0.9860 H   0  0  0  0  0  0
   -0.8640    2.3975    0.7665 H   0  0  0  0  0  0
    1.4227    2.5467   -0.3937 H   0  0  0  0  0  0
    1.3339    1.4045    0.9206 H   0  0  0  0  0  0
    1.3719    0.8412   -2.0745 H   0  0  0  0  0  0
    2.5039    0.2640   -0.8605 H   0  0  0  0  0  0
    0.9537   -1.4770   -1.7740 H   0  0  0  0  0  0
    1.8483   -1.8377    0.5364 H   0  0  0  0  0  0
    0.2981   -2.5999    0.2134 H   0  0  0  0  0  0
   -1.4673   -1.4194   -1.1755 H   0  0  0  0  0  0
   -1.0238    0.0032   -2.1218 H   0  0  0  0  0  0
  1  8  1  0  0  0
  1  2  1  0  0  0
  1 10  1  0  0  0
  1 11  1  0  0  0
  2  3  1  0  0  0
  2 12  1  0  0  0
  2 13  1  0  0  0
  3  9  1  0  0  0
  3  4  1  0  0  0
  3 14  1  0  0  0
  4  5  1  0  0  0
  4 15  1  0  0  0
  4 16  1  0  0  0
  5  6  1  0  0  0
  5 17  1  0  0  0
  5 18  1  0  0  0
  6  7  1  0  0  0
  6 19  1  0  0  0
  6 20  1  0  0  0
  7  8  1  0  0  0
  7  9  1  0  0  0
  7 21  1  0  0  0
  8 22  1  0  0  0
  8 23  1  0  0  0
  9 24  1  0  0  0
  9 25  1  0  0  0
M  END
>  <i_m_Spin_multiplicity> (1)
1

>  <s_j_Task> (1)
Single Point

>  <s_j_QM_Method> (1)
DFT(b3lyp-d3)

>  <s_j_QM_Basis> (1)
cc-pvtz(-f)

>  <i_j_Number_of_canonical_orbitals> (1)
347

>  <i_j_Geometry_convergence_category> (1)
3

>  <r_j_Gas_Phase_Energy> (1)
-352.744120553839

>  <r_j_Final_Energy> (1)
-352.744120553839

>  <r_j_HOMO> (1)
-0.283742220935532

>  <r_j_LUMO> (1)
0.020020949286114

>  <r_j_Polarizability> (1)
98.4394895534784

>  <r_j_QM_Dipole_(debye)> (1)
0.0156335014609243

>  <r_j_QM_Dipole_X_(debye)> (1)
-0.00899307681693886

>  <r_j_QM_Dipole_Y_(debye)> (1)
-0.00503628194521789

>  <r_j_QM_Dipole_Z_(debye)> (1)
-0.0117544375221289

>  <r_j_Lowest_Frequency_(cm-1)> (1)
166.120944655312

>  <r_j_Highest_Frequency_(cm-1)> (1)
3053.60715650683

>  <r_j_2nd_Lowest_Frequency_(cm-1)> (1)
246.450711473436

>  <i_j_Num_Negative_Frequencies> (1)
0

>  <r_j_Zero_Point_Energy_(kcal/mol)> (1)
147.469301167735

>  <r_j_Entropy_(cal/mol/K)_298.15K_1.00E+00atm> (1)
82.9381350741965

>  <r_j_Enthalpy_(kcal/mol)_298.15K_1.00E+00atm> (1)
5.19226224254173

>  <r_j_Free_Energy_(kcal/mol)_298.15K_1.00E+00atm> (1)
-19.53574272983

>  <r_j_Internal_Energy_(kcal/mol)_298.15K_1.00E+00atm> (1)
4.59977665371446

>  <r_j_Heat_Capacity_(cal/mol/K)_298.15K_1.00E+00atm> (1)
32.062774619963

>  <r_j_ln(Q)_298.15K_1.00E+00atm> (1)
32.9725196666769

>  <r_j_Total_Internal_Energy_(au)_298.15K_1.00E+00atm> (1)
-352.501783051233

>  <r_j_Total_Enthalpy_(au)_298.15K_1.00E+00atm> (1)
-352.50083886534

>  <r_j_Total_Free_Energy_(au)_298.15K_1.00E+00atm> (1)
-352.540245449869

>  <r_lp_tautomer_probability> (1)
1

>  <r_epik_Ionization_Penalty> (1)
  0.0000

>  <r_epik_Ionization_Penalty_Charging> (1)
  0.0000

>  <r_epik_Ionization_Penalty_Neutral> (1)
  0.0000

>  <r_epik_State_Penalty> (1)
  0.0000

>  <r_epik_Charging_Adjusted_Penalty> (1)
0

>  <i_epik_Tot_Q> (1)
0

>  <i_epik_Tot_abs_Q> (1)
0

>  <s_lp_Force_Field> (1)
S-OPLS

>  <r_lp_Energy> (1)
17.1821

>  <b_lp_Chiralities_Consistent> (1)
1

$$$$
