13628003_Dipropylene glycol ethyl ether
                    3D
 Schrodinger Suite 2021-3.
 29 28  0  0  1  0            999 V2000
   -0.9252   -2.7828   -2.1923 C   0  0  0  0  0  0
   -0.0975   -2.0558   -1.1450 C   0  0  0  0  0  0
   -0.4885   -0.6937   -1.1563 O   0  0  0  0  0  0
   -0.0437    0.0914   -0.0570 C   0  0  0  0  0  0
   -0.6254    1.4836   -0.2712 C   0  0  0  0  0  0
    1.4816    0.1216    0.0813 C   0  0  0  0  0  0
    2.0385    0.6462   -1.1091 O   0  0  0  0  0  0
    3.4642    0.6198   -1.1718 C   0  0  0  0  0  0
    3.9162    1.8144   -1.9975 C   0  0  0  0  0  0
    3.9067   -0.7098   -1.7894 C   0  0  0  0  0  0
    5.3286   -0.7582   -1.7481 O   0  0  0  0  0  0
   -0.6458   -3.8402   -2.2413 H   0  0  0  0  0  0
   -0.7643   -2.3332   -3.1764 H   0  0  0  0  0  0
   -1.9904   -2.7108   -1.9544 H   0  0  0  0  0  0
   -0.2614   -2.4988   -0.1470 H   0  0  0  0  0  0
    0.9749   -2.1576   -1.3759 H   0  0  0  0  0  0
   -0.4347   -0.3383    0.8847 H   0  0  0  0  0  0
   -0.4008    2.1325    0.5812 H   0  0  0  0  0  0
   -1.7098    1.4199   -0.3913 H   0  0  0  0  0  0
   -0.1935    1.9238   -1.1724 H   0  0  0  0  0  0
    1.7449    0.7486    0.9503 H   0  0  0  0  0  0
    1.8626   -0.8893    0.2909 H   0  0  0  0  0  0
    3.8943    0.6871   -0.1601 H   0  0  0  0  0  0
    4.9997    1.7868   -2.1351 H   0  0  0  0  0  0
    3.6361    2.7488   -1.5036 H   0  0  0  0  0  0
    3.4338    1.7875   -2.9802 H   0  0  0  0  0  0
    3.4568   -1.5418   -1.2244 H   0  0  0  0  0  0
    3.5165   -0.7584   -2.8181 H   0  0  0  0  0  0
    5.6178   -1.5581   -2.2034 H   0  0  0  0  0  0
  1  2  1  0  0  0
  1 12  1  0  0  0
  1 13  1  0  0  0
  1 14  1  0  0  0
  2  3  1  0  0  0
  2 15  1  0  0  0
  2 16  1  0  0  0
  3  4  1  0  0  0
  4  5  1  0  0  0
  4  6  1  0  0  0
  4 17  1  0  0  0
  5 18  1  0  0  0
  5 19  1  0  0  0
  5 20  1  0  0  0
  6  7  1  0  0  0
  6 21  1  0  0  0
  6 22  1  0  0  0
  7  8  1  0  0  0
  8  9  1  0  0  0
  8 10  1  0  0  0
  8 23  1  0  0  0
  9 24  1  0  0  0
  9 25  1  0  0  0
  9 26  1  0  0  0
 10 11  1  0  0  0
 10 27  1  0  0  0
 10 28  1  0  0  0
 11 29  1  0  0  0
M  END
>  <i_m_Spin_multiplicity> (1)
1

>  <s_j_Task> (1)
Single Point

>  <s_j_QM_Method> (1)
DFT(b3lyp-d3)

>  <s_j_QM_Basis> (1)
cc-pvtz(-f)

>  <i_j_Number_of_canonical_orbitals> (1)
415

>  <i_j_Geometry_convergence_category> (1)
0

>  <r_j_Gas_Phase_Energy> (1)
-541.556163821297

>  <r_j_Final_Energy> (1)
-541.556163821297

>  <r_j_HOMO> (1)
-0.253397042326649

>  <r_j_LUMO> (1)
0.0241738924992516

>  <r_j_Polarizability> (1)
112.448171162699

>  <r_j_QM_Dipole_(debye)> (1)
2.03946357976936

>  <r_j_QM_Dipole_X_(debye)> (1)
0.653720796166241

>  <r_j_QM_Dipole_Y_(debye)> (1)
-1.78738998135653

>  <r_j_QM_Dipole_Z_(debye)> (1)
0.733006049369114

>  <r_j_Lowest_Frequency_(cm-1)> (1)
46.8738068641823

>  <r_j_Highest_Frequency_(cm-1)> (1)
3782.28251942713

>  <r_j_2nd_Lowest_Frequency_(cm-1)> (1)
55.8679951129239

>  <i_j_Num_Negative_Frequencies> (1)
0

>  <r_j_Zero_Point_Energy_(kcal/mol)> (1)
162.339865176693

>  <r_j_Entropy_(cal/mol/K)_298.15K_1.00E+00atm> (1)
111.32253772105

>  <r_j_Enthalpy_(kcal/mol)_298.15K_1.00E+00atm> (1)
8.90537142995326

>  <r_j_Free_Energy_(kcal/mol)_298.15K_1.00E+00atm> (1)
-24.2854431915779

>  <r_j_Internal_Energy_(kcal/mol)_298.15K_1.00E+00atm> (1)
8.31288584112598

>  <r_j_Heat_Capacity_(cal/mol/K)_298.15K_1.00E+00atm> (1)
49.4247179766562

>  <r_j_ln(Q)_298.15K_1.00E+00atm> (1)
40.9890867382054

>  <r_j_Total_Internal_Energy_(au)_298.15K_1.00E+00atm> (1)
-541.284211350177

>  <r_j_Total_Enthalpy_(au)_298.15K_1.00E+00atm> (1)
-541.283267164285

>  <r_j_Total_Free_Energy_(au)_298.15K_1.00E+00atm> (1)
-541.336160094524

>  <r_lp_tautomer_probability> (1)
1

>  <r_epik_Ionization_Penalty> (1)
  0.0000

>  <r_epik_Ionization_Penalty_Charging> (1)
  0.0000

>  <r_epik_Ionization_Penalty_Neutral> (1)
  0.0000

>  <r_epik_State_Penalty> (1)
  0.0000

>  <r_epik_Charging_Adjusted_Penalty> (1)
0

>  <i_epik_Tot_Q> (1)
0

>  <i_epik_Tot_abs_Q> (1)
0

>  <s_lp_Force_Field> (1)
S-OPLS

>  <r_lp_Energy> (1)
3.667924

>  <b_lp_Chiralities_Consistent> (1)
1

$$$$
