13629_1,2-dimethyl-4-ethylbenzene
                    3D
 Schrodinger Suite 2021-3.
 24 24  0  0  1  0            999 V2000
   -0.5645    1.4528    0.0284 C   0  0  0  0  0  0
   -0.0189    0.0144   -0.0114 C   0  0  0  0  0  0
    1.4939   -0.0256    0.0014 C   0  0  0  0  0  0
    2.2275   -0.0221   -1.1872 C   0  0  0  0  0  0
    3.6277   -0.0092   -1.2099 C   0  0  0  0  0  0
    4.3315    0.0027    0.0099 C   0  0  0  0  0  0
    3.5963    0.0014    1.2028 C   0  0  0  0  0  0
    2.2047   -0.0124    1.2058 C   0  0  0  0  0  0
    5.8438    0.0112    0.0629 C   0  0  0  0  0  0
    4.3263   -0.0148   -2.5537 C   0  0  0  0  0  0
   -1.6597    1.4627    0.0233 H   0  0  0  0  0  0
   -0.2125    2.0249   -0.8363 H   0  0  0  0  0  0
   -0.2219    1.9720    0.9295 H   0  0  0  0  0  0
   -0.4087   -0.5437    0.8486 H   0  0  0  0  0  0
   -0.3954   -0.4921   -0.9082 H   0  0  0  0  0  0
    1.6919   -0.0332   -2.1355 H   0  0  0  0  0  0
    4.1305    0.0066    2.1500 H   0  0  0  0  0  0
    1.6657   -0.0158    2.1503 H   0  0  0  0  0  0
    6.1980    0.0210    1.0974 H   0  0  0  0  0  0
    6.2650    0.8909   -0.4376 H   0  0  0  0  0  0
    6.2742   -0.8718   -0.4241 H   0  0  0  0  0  0
    5.4137    0.0099   -2.4691 H   0  0  0  0  0  0
    4.0224    0.8502   -3.1546 H   0  0  0  0  0  0
    4.0605   -0.9105   -3.1270 H   0  0  0  0  0  0
  1  2  1  0  0  0
  1 11  1  0  0  0
  1 12  1  0  0  0
  1 13  1  0  0  0
  2  3  1  0  0  0
  2 14  1  0  0  0
  2 15  1  0  0  0
  3  8  1  0  0  0
  3  4  2  0  0  0
  4  5  1  0  0  0
  4 16  1  0  0  0
  5  6  2  0  0  0
  5 10  1  0  0  0
  6  7  1  0  0  0
  6  9  1  0  0  0
  7  8  2  0  0  0
  7 17  1  0  0  0
  8 18  1  0  0  0
  9 19  1  0  0  0
  9 20  1  0  0  0
  9 21  1  0  0  0
 10 22  1  0  0  0
 10 23  1  0  0  0
 10 24  1  0  0  0
M  END
>  <i_m_Spin_multiplicity> (1)
1

>  <s_j_Task> (1)
Single Point

>  <s_j_QM_Method> (1)
DFT(b3lyp-d3)

>  <s_j_QM_Basis> (1)
cc-pvtz(-f)

>  <i_j_Number_of_canonical_orbitals> (1)
349

>  <i_j_Geometry_convergence_category> (1)
0

>  <r_j_Gas_Phase_Energy> (1)
-389.655452332191

>  <r_j_Final_Energy> (1)
-389.655452332191

>  <r_j_HOMO> (1)
-0.229109339280979

>  <r_j_LUMO> (1)
-0.00726816317127662

>  <r_j_Polarizability> (1)
116.87039160596

>  <r_j_QM_Dipole_(debye)> (1)
0.387195474762664

>  <r_j_QM_Dipole_X_(debye)> (1)
0.193566549607392

>  <r_j_QM_Dipole_Y_(debye)> (1)
0.0281707482423463

>  <r_j_QM_Dipole_Z_(debye)> (1)
-0.334153760256023

>  <r_j_Lowest_Frequency_(cm-1)> (1)
82.4105373290312

>  <r_j_Highest_Frequency_(cm-1)> (1)
3124.63844234591

>  <r_j_2nd_Lowest_Frequency_(cm-1)> (1)
107.523241053426

>  <i_j_Num_Negative_Frequencies> (1)
0

>  <r_j_Zero_Point_Energy_(kcal/mol)> (1)
132.558646632467

>  <r_j_Entropy_(cal/mol/K)_298.15K_1.00E+00atm> (1)
96.4160145970043

>  <r_j_Enthalpy_(kcal/mol)_298.15K_1.00E+00atm> (1)
6.91863381000277

>  <r_j_Free_Energy_(kcal/mol)_298.15K_1.00E+00atm> (1)
-21.8278009420941

>  <r_j_Internal_Energy_(kcal/mol)_298.15K_1.00E+00atm> (1)
6.32614822117549

>  <r_j_Heat_Capacity_(cal/mol/K)_298.15K_1.00E+00atm> (1)
39.1996690682503

>  <r_j_ln(Q)_298.15K_1.00E+00atm> (1)
36.8410664389298

>  <r_j_Total_Internal_Energy_(au)_298.15K_1.00E+00atm> (1)
-389.434125322013

>  <r_j_Total_Enthalpy_(au)_298.15K_1.00E+00atm> (1)
-389.43318113612

>  <r_j_Total_Free_Energy_(au)_298.15K_1.00E+00atm> (1)
-389.478991496165

>  <r_lp_tautomer_probability> (1)
1

>  <r_epik_Ionization_Penalty> (1)
  0.0000

>  <r_epik_Ionization_Penalty_Charging> (1)
  0.0000

>  <r_epik_Ionization_Penalty_Neutral> (1)
  0.0000

>  <r_epik_State_Penalty> (1)
  0.0000

>  <r_epik_Charging_Adjusted_Penalty> (1)
0

>  <i_epik_Tot_Q> (1)
0

>  <i_epik_Tot_abs_Q> (1)
0

>  <s_lp_Force_Field> (1)
S-OPLS

>  <r_lp_Energy> (1)
7.057113

>  <b_lp_Chiralities_Consistent> (1)
1

$$$$
