13627_1,3-dimethyl-5-ethylbenzene
                    3D
 Schrodinger Suite 2021-3.
 24 24  0  0  1  0            999 V2000
   -0.5594    1.4511    0.0369 C   0  0  0  0  0  0
   -0.0175    0.0116   -0.0187 C   0  0  0  0  0  0
    1.4957   -0.0289   -0.0145 C   0  0  0  0  0  0
    2.2171   -0.0263   -1.2086 C   0  0  0  0  0  0
    3.6192   -0.0105   -1.2149 C   0  0  0  0  0  0
    4.2911    0.0037    0.0080 C   0  0  0  0  0  0
    3.5960    0.0026    1.2260 C   0  0  0  0  0  0
    2.2014   -0.0140    1.1969 C   0  0  0  0  0  0
    4.3556    0.0148    2.5323 C   0  0  0  0  0  0
    4.3730   -0.0147   -2.5248 C   0  0  0  0  0  0
   -1.6546    1.4634    0.0399 H   0  0  0  0  0  0
   -0.2121    2.0292   -0.8257 H   0  0  0  0  0  0
   -0.2090    1.9620    0.9397 H   0  0  0  0  0  0
   -0.4037   -0.5530    0.8386 H   0  0  0  0  0  0
   -0.3991   -0.4860   -0.9181 H   0  0  0  0  0  0
    1.6806   -0.0387   -2.1558 H   0  0  0  0  0  0
    5.3795    0.0126    0.0184 H   0  0  0  0  0  0
    1.6470   -0.0169    2.1334 H   0  0  0  0  0  0
    3.6801    0.0095    3.3923 H   0  0  0  0  0  0
    4.9924    0.9036    2.6122 H   0  0  0  0  0  0
    5.0131   -0.8583    2.6173 H   0  0  0  0  0  0
    5.4553    0.0022   -2.3683 H   0  0  0  0  0  0
    4.1095    0.8556   -3.1371 H   0  0  0  0  0  0
    4.1342   -0.9062   -3.1166 H   0  0  0  0  0  0
  1  2  1  0  0  0
  1 11  1  0  0  0
  1 12  1  0  0  0
  1 13  1  0  0  0
  2  3  1  0  0  0
  2 14  1  0  0  0
  2 15  1  0  0  0
  3  8  1  0  0  0
  3  4  2  0  0  0
  4  5  1  0  0  0
  4 16  1  0  0  0
  5  6  2  0  0  0
  5 10  1  0  0  0
  6  7  1  0  0  0
  6 17  1  0  0  0
  7  8  2  0  0  0
  7  9  1  0  0  0
  8 18  1  0  0  0
  9 19  1  0  0  0
  9 20  1  0  0  0
  9 21  1  0  0  0
 10 22  1  0  0  0
 10 23  1  0  0  0
 10 24  1  0  0  0
M  END
>  <i_m_Spin_multiplicity> (1)
1

>  <s_j_Task> (1)
Single Point

>  <s_j_QM_Method> (1)
DFT(b3lyp-d3)

>  <s_j_QM_Basis> (1)
cc-pvtz(-f)

>  <i_j_Number_of_canonical_orbitals> (1)
349

>  <i_j_Geometry_convergence_category> (1)
3

>  <r_j_Gas_Phase_Energy> (1)
-389.657502604683

>  <r_j_Final_Energy> (1)
-389.657502604683

>  <r_j_HOMO> (1)
-0.235822339299163

>  <r_j_LUMO> (1)
-0.00758745092575548

>  <r_j_Polarizability> (1)
117.31742534869

>  <r_j_QM_Dipole_(debye)> (1)
0.0641821314309932

>  <r_j_QM_Dipole_X_(debye)> (1)
0.0403448061520104

>  <r_j_QM_Dipole_Y_(debye)> (1)
0.0384600689588671

>  <r_j_QM_Dipole_Z_(debye)> (1)
-0.031819266290428

>  <r_j_Lowest_Frequency_(cm-1)> (1)
81.6203126932054

>  <r_j_Highest_Frequency_(cm-1)> (1)
3106.624417301

>  <r_j_2nd_Lowest_Frequency_(cm-1)> (1)
133.077977039447

>  <i_j_Num_Negative_Frequencies> (1)
0

>  <r_j_Zero_Point_Energy_(kcal/mol)> (1)
132.415039742145

>  <r_j_Entropy_(cal/mol/K)_298.15K_1.00E+00atm> (1)
96.5079967183441

>  <r_j_Enthalpy_(kcal/mol)_298.15K_1.00E+00atm> (1)
6.95230332567037

>  <r_j_Free_Energy_(kcal/mol)_298.15K_1.00E+00atm> (1)
-21.8215558959039

>  <r_j_Internal_Energy_(kcal/mol)_298.15K_1.00E+00atm> (1)
6.3598177368431

>  <r_j_Heat_Capacity_(cal/mol/K)_298.15K_1.00E+00atm> (1)
39.3449746031556

>  <r_j_ln(Q)_298.15K_1.00E+00atm> (1)
36.8305260202126

>  <r_j_Total_Internal_Energy_(au)_298.15K_1.00E+00atm> (1)
-389.436350790864

>  <r_j_Total_Enthalpy_(au)_298.15K_1.00E+00atm> (1)
-389.435406604972

>  <r_j_Total_Free_Energy_(au)_298.15K_1.00E+00atm> (1)
-389.481260668691

>  <r_lp_tautomer_probability> (1)
1

>  <r_epik_Ionization_Penalty> (1)
  0.0000

>  <r_epik_Ionization_Penalty_Charging> (1)
  0.0000

>  <r_epik_Ionization_Penalty_Neutral> (1)
  0.0000

>  <r_epik_State_Penalty> (1)
  0.0000

>  <r_epik_Charging_Adjusted_Penalty> (1)
0

>  <i_epik_Tot_Q> (1)
0

>  <i_epik_Tot_abs_Q> (1)
0

>  <s_lp_Force_Field> (1)
S-OPLS

>  <r_lp_Energy> (1)
5.152006

>  <b_lp_Chiralities_Consistent> (1)
1

$$$$
