13652_2-Ethylnaphthalene
                    3D
 Schrodinger Suite 2021-3.
 24 25  0  0  1  0            999 V2000
   -0.0374    0.0634   -0.1809 C   0  0  0  0  0  0
    1.4760    0.0049    0.0920 C   0  0  0  0  0  0
    2.0049   -1.4123    0.0896 C   0  0  0  0  0  0
    2.2935   -2.0812    1.2603 C   0  0  0  0  0  0
    2.7513   -3.4259    1.2602 C   0  0  0  0  0  0
    3.0531   -4.1253    2.4589 C   0  0  0  0  0  0
    3.4966   -5.4277    2.4232 C   0  0  0  0  0  0
    3.6611   -6.0947    1.1849 C   0  0  0  0  0  0
    3.3774   -5.4447    0.0055 C   0  0  0  0  0  0
    2.9169   -4.1018    0.0092 C   0  0  0  0  0  0
    2.6147   -3.3970   -1.1868 C   0  0  0  0  0  0
    2.1733   -2.0968   -1.1464 C   0  0  0  0  0  0
   -0.3977    1.0973   -0.1911 H   0  0  0  0  0  0
   -0.5904   -0.4861    0.5877 H   0  0  0  0  0  0
   -0.2778   -0.3896   -1.1483 H   0  0  0  0  0  0
    2.0025    0.5929   -0.6709 H   0  0  0  0  0  0
    1.6929    0.4788    1.0560 H   0  0  0  0  0  0
    2.1714   -1.5753    2.2159 H   0  0  0  0  0  0
    2.9271   -3.6125    3.4091 H   0  0  0  0  0  0
    3.7233   -5.9509    3.3476 H   0  0  0  0  0  0
    4.0126   -7.1223    1.1705 H   0  0  0  0  0  0
    3.5022   -5.9519   -0.9480 H   0  0  0  0  0  0
    2.7428   -3.9043   -2.1397 H   0  0  0  0  0  0
    1.9486   -1.5719   -2.0719 H   0  0  0  0  0  0
  1  2  1  0  0  0
  1 13  1  0  0  0
  1 14  1  0  0  0
  1 15  1  0  0  0
  2  3  1  0  0  0
  2 16  1  0  0  0
  2 17  1  0  0  0
  3 12  1  0  0  0
  3  4  2  0  0  0
  4  5  1  0  0  0
  4 18  1  0  0  0
  5 10  1  0  0  0
  5  6  2  0  0  0
  6  7  1  0  0  0
  6 19  1  0  0  0
  7  8  2  0  0  0
  7 20  1  0  0  0
  8  9  1  0  0  0
  8 21  1  0  0  0
  9 10  2  0  0  0
  9 22  1  0  0  0
 10 11  1  0  0  0
 11 12  2  0  0  0
 11 23  1  0  0  0
 12 24  1  0  0  0
M  END
>  <i_m_Spin_multiplicity> (1)
1

>  <s_j_Task> (1)
Single Point

>  <s_j_QM_Method> (1)
DFT(b3lyp-d3)

>  <s_j_QM_Basis> (1)
cc-pvtz(-f)

>  <i_j_Number_of_canonical_orbitals> (1)
374

>  <i_j_Geometry_convergence_category> (1)
1

>  <r_j_Gas_Phase_Energy> (1)
-464.684116656201

>  <r_j_Final_Energy> (1)
-464.684116656201

>  <r_j_HOMO> (1)
-0.242178651755147

>  <r_j_LUMO> (1)
-0.0687427074017265

>  <r_j_Polarizability> (1)
140.627632287374

>  <r_j_QM_Dipole_(debye)> (1)
0.467245511000268

>  <r_j_QM_Dipole_X_(debye)> (1)
-0.202007100208242

>  <r_j_QM_Dipole_Y_(debye)> (1)
0.407131072912038

>  <r_j_QM_Dipole_Z_(debye)> (1)
-0.108424113945429

>  <r_j_Lowest_Frequency_(cm-1)> (1)
83.9246398294269

>  <r_j_Highest_Frequency_(cm-1)> (1)
3145.91448160201

>  <r_j_2nd_Lowest_Frequency_(cm-1)> (1)
109.37796075216

>  <i_j_Num_Negative_Frequencies> (1)
0

>  <r_j_Zero_Point_Energy_(kcal/mol)> (1)
127.264822980854

>  <r_j_Entropy_(cal/mol/K)_298.15K_1.00E+00atm> (1)
94.5317791465519

>  <r_j_Enthalpy_(kcal/mol)_298.15K_1.00E+00atm> (1)
6.51912902957417

>  <r_j_Free_Energy_(kcal/mol)_298.15K_1.00E+00atm> (1)
-21.6655209229703

>  <r_j_Internal_Energy_(kcal/mol)_298.15K_1.00E+00atm> (1)
5.9266434407469

>  <r_j_Heat_Capacity_(cal/mol/K)_298.15K_1.00E+00atm> (1)
39.0472070854537

>  <r_j_ln(Q)_298.15K_1.00E+00atm> (1)
36.5671694493929

>  <r_j_Total_Internal_Energy_(au)_298.15K_1.00E+00atm> (1)
-464.471862542455

>  <r_j_Total_Enthalpy_(au)_298.15K_1.00E+00atm> (1)
-464.470918356563

>  <r_j_Total_Free_Energy_(au)_298.15K_1.00E+00atm> (1)
-464.515833455538

>  <r_lp_tautomer_probability> (1)
1

>  <r_epik_Ionization_Penalty> (1)
  0.0000

>  <r_epik_Ionization_Penalty_Charging> (1)
  0.0000

>  <r_epik_Ionization_Penalty_Neutral> (1)
  0.0000

>  <r_epik_State_Penalty> (1)
  0.0000

>  <r_epik_Charging_Adjusted_Penalty> (1)
0

>  <i_epik_Tot_Q> (1)
0

>  <i_epik_Tot_abs_Q> (1)
0

>  <s_lp_Force_Field> (1)
S-OPLS

>  <r_lp_Energy> (1)
18.714

>  <b_lp_Chiralities_Consistent> (1)
1

$$$$
