136882_4-Methylpyridazine
                    3D
 Schrodinger Suite 2021-3.
 13 13  0  0  1  0            999 V2000
   -0.0134    0.0124    0.0000 C   0  0  0  0  0  0
    1.4916   -0.0110    0.0000 C   0  0  0  0  0  0
    2.2550    1.1668    0.0000 C   0  0  0  0  0  0
    3.5898    1.2115    0.0000 N   0  0  0  0  0  0
    4.2855    0.0725    0.0000 N   0  0  0  0  0  0
    3.6198   -1.0879    0.0000 C   0  0  0  0  0  0
    2.2278   -1.1897    0.0000 C   0  0  0  0  0  0
   -0.3985    1.0355    0.0000 H   0  0  0  0  0  0
   -0.4128   -0.5001    0.8819 H   0  0  0  0  0  0
   -0.4128   -0.5001   -0.8819 H   0  0  0  0  0  0
    1.7652    2.1387    0.0000 H   0  0  0  0  0  0
    4.2458   -1.9767    0.0000 H   0  0  0  0  0  0
    1.7431   -2.1625    0.0000 H   0  0  0  0  0  0
  1  2  1  0  0  0
  1  8  1  0  0  0
  1  9  1  0  0  0
  1 10  1  0  0  0
  2  7  1  0  0  0
  2  3  2  0  0  0
  3  4  1  0  0  0
  3 11  1  0  0  0
  4  5  2  0  0  0
  5  6  1  0  0  0
  6  7  2  0  0  0
  6 12  1  0  0  0
  7 13  1  0  0  0
M  END
>  <i_m_Spin_multiplicity> (1)
1

>  <s_j_Task> (1)
Single Point

>  <s_j_QM_Method> (1)
DFT(b3lyp-d3)

>  <s_j_QM_Basis> (1)
cc-pvtz(-f)

>  <i_j_Number_of_canonical_orbitals> (1)
213

>  <i_j_Geometry_convergence_category> (1)
0

>  <r_j_Gas_Phase_Energy> (1)
-303.709734000583

>  <r_j_Final_Energy> (1)
-303.709734000583

>  <r_j_HOMO> (1)
-0.239031098874335

>  <r_j_LUMO> (1)
-0.0592805146559423

>  <r_j_Polarizability> (1)
66.9833021232822

>  <r_j_QM_Dipole_(debye)> (1)
4.63639679772246

>  <r_j_QM_Dipole_X_(debye)> (1)
-4.11503868969395

>  <r_j_QM_Dipole_Y_(debye)> (1)
-2.13603179944192

>  <r_j_QM_Dipole_Z_(debye)> (1)
-5.08768203306278e-06

>  <r_j_Lowest_Frequency_(cm-1)> (1)
175.921555375441

>  <r_j_Highest_Frequency_(cm-1)> (1)
3136.52859980738

>  <r_j_2nd_Lowest_Frequency_(cm-1)> (1)
219.251984305144

>  <i_j_Num_Negative_Frequencies> (1)
0

>  <r_j_Zero_Point_Energy_(kcal/mol)> (1)
64.6754410752202

>  <r_j_Entropy_(cal/mol/K)_298.15K_1.00E+00atm> (1)
75.8078783396119

>  <r_j_Enthalpy_(kcal/mol)_298.15K_1.00E+00atm> (1)
4.18050201514351

>  <r_j_Free_Energy_(kcal/mol)_298.15K_1.00E+00atm> (1)
-18.4216169118118

>  <r_j_Internal_Energy_(kcal/mol)_298.15K_1.00E+00atm> (1)
3.58801642631624

>  <r_j_Heat_Capacity_(cal/mol/K)_298.15K_1.00E+00atm> (1)
21.3491152851651

>  <r_j_ln(Q)_298.15K_1.00E+00atm> (1)
31.0920928022474

>  <r_j_Total_Internal_Energy_(au)_298.15K_1.00E+00atm> (1)
-303.600949255866

>  <r_j_Total_Enthalpy_(au)_298.15K_1.00E+00atm> (1)
-303.600005069974

>  <r_j_Total_Free_Energy_(au)_298.15K_1.00E+00atm> (1)
-303.636023839423

>  <r_lp_tautomer_probability> (1)
1

>  <r_epik_Ionization_Penalty> (1)
  0.0004

>  <r_epik_Ionization_Penalty_Charging> (1)
  0.0000

>  <r_epik_Ionization_Penalty_Neutral> (1)
  0.0004

>  <r_epik_State_Penalty> (1)
  0.0002

>  <r_epik_Charging_Adjusted_Penalty> (1)
0.00018458

>  <i_epik_Tot_Q> (1)
0

>  <i_epik_Tot_abs_Q> (1)
0

>  <s_lp_Force_Field> (1)
S-OPLS

>  <r_lp_Energy> (1)
9.81186

>  <b_lp_Chiralities_Consistent> (1)
1

$$$$
