137081_2-methylnonadecane
                    3D
 Schrodinger Suite 2021-3.
 62 61  0  0  1  0            999 V2000
   -6.9873    8.3294   -1.7511 C   0  0  0  0  0  0
   -6.3967    6.9240   -1.6016 C   0  0  0  0  0  0
   -6.7056    6.2911   -0.2374 C   0  0  0  0  0  0
   -6.2052    4.8468   -0.0783 C   0  0  0  0  0  0
   -4.6783    4.6975   -0.0965 C   0  0  0  0  0  0
   -4.2088    3.2501    0.0916 C   0  0  0  0  0  0
   -2.6834    3.1009    0.0676 C   0  0  0  0  0  0
   -2.2052    1.6500    0.1958 C   0  0  0  0  0  0
   -0.6787    1.5120    0.1676 C   0  0  0  0  0  0
   -0.1901    0.0607    0.2377 C   0  0  0  0  0  0
    1.3376   -0.0641    0.2096 C   0  0  0  0  0  0
    1.8374   -1.5134    0.2271 C   0  0  0  0  0  0
    3.3685   -1.6179    0.2139 C   0  0  0  0  0  0
    3.9122   -3.0503    0.1002 C   0  0  0  0  0  0
    3.5667   -3.9621    1.2851 C   0  0  0  0  0  0
    4.2304   -5.3414    1.1913 C   0  0  0  0  0  0
    3.8592   -6.2698    2.3542 C   0  0  0  0  0  0
    4.6172   -7.6107    2.3883 C   0  0  0  0  0  0
    4.3512   -8.4651    1.1400 C   0  0  0  0  0  0
    4.2631   -8.3954    3.6598 C   0  0  0  0  0  0
   -6.7551    8.7621   -2.7300 H   0  0  0  0  0  0
   -6.5913    9.0062   -0.9851 H   0  0  0  0  0  0
   -8.0781    8.3129   -1.6433 H   0  0  0  0  0  0
   -6.7880    6.2730   -2.3959 H   0  0  0  0  0  0
   -5.3114    6.9713   -1.7541 H   0  0  0  0  0  0
   -6.2730    6.9162    0.5573 H   0  0  0  0  0  0
   -7.7928    6.3109   -0.0795 H   0  0  0  0  0  0
   -6.5885    4.4375    0.8664 H   0  0  0  0  0  0
   -6.6386    4.2251   -0.8754 H   0  0  0  0  0  0
   -4.2764    5.0780   -1.0446 H   0  0  0  0  0  0
   -4.2438    5.3287    0.6924 H   0  0  0  0  0  0
   -4.5997    2.8576    1.0414 H   0  0  0  0  0  0
   -4.6472    2.6228   -0.6980 H   0  0  0  0  0  0
   -2.2933    3.5267   -0.8683 H   0  0  0  0  0  0
   -2.2462    3.7024    0.8776 H   0  0  0  0  0  0
   -2.5943    1.2166    1.1284 H   0  0  0  0  0  0
   -2.6391    1.0529   -0.6193 H   0  0  0  0  0  0
   -0.2907    1.9785   -0.7495 H   0  0  0  0  0  0
   -0.2467    2.0830    1.0020 H   0  0  0  0  0  0
   -0.5787   -0.4133    1.1505 H   0  0  0  0  0  0
   -0.6167   -0.5060   -0.6026 H   0  0  0  0  0  0
    1.7256    0.4408   -0.6869 H   0  0  0  0  0  0
    1.7617    0.4774    1.0676 H   0  0  0  0  0  0
    1.4341   -2.0218    1.1127 H   0  0  0  0  0  0
    1.4299   -2.0489   -0.6430 H   0  0  0  0  0  0
    3.7545   -1.0257   -0.6271 H   0  0  0  0  0  0
    3.7699   -1.1485    1.1238 H   0  0  0  0  0  0
    3.5382   -3.5075   -0.8275 H   0  0  0  0  0  0
    5.0051   -3.0067   -0.0038 H   0  0  0  0  0  0
    3.8727   -3.4727    2.2215 H   0  0  0  0  0  0
    2.4786   -4.0925    1.3526 H   0  0  0  0  0  0
    3.9504   -5.8051    0.2365 H   0  0  0  0  0  0
    5.3227   -5.2163    1.1599 H   0  0  0  0  0  0
    4.0433   -5.7406    3.3000 H   0  0  0  0  0  0
    2.7778   -6.4726    2.3274 H   0  0  0  0  0  0
    5.6937   -7.3826    2.4197 H   0  0  0  0  0  0
    3.2795   -8.6798    1.0409 H   0  0  0  0  0  0
    4.8773   -9.4241    1.2015 H   0  0  0  0  0  0
    4.6784   -7.9671    0.2224 H   0  0  0  0  0  0
    3.1959   -8.6500    3.6735 H   0  0  0  0  0  0
    4.4775   -7.8133    4.5629 H   0  0  0  0  0  0
    4.8280   -9.3321    3.7209 H   0  0  0  0  0  0
  1  2  1  0  0  0
  1 21  1  0  0  0
  1 22  1  0  0  0
  1 23  1  0  0  0
  2  3  1  0  0  0
  2 24  1  0  0  0
  2 25  1  0  0  0
  3  4  1  0  0  0
  3 26  1  0  0  0
  3 27  1  0  0  0
  4  5  1  0  0  0
  4 28  1  0  0  0
  4 29  1  0  0  0
  5  6  1  0  0  0
  5 30  1  0  0  0
  5 31  1  0  0  0
  6  7  1  0  0  0
  6 32  1  0  0  0
  6 33  1  0  0  0
  7  8  1  0  0  0
  7 34  1  0  0  0
  7 35  1  0  0  0
  8  9  1  0  0  0
  8 36  1  0  0  0
  8 37  1  0  0  0
  9 10  1  0  0  0
  9 38  1  0  0  0
  9 39  1  0  0  0
 10 11  1  0  0  0
 10 40  1  0  0  0
 10 41  1  0  0  0
 11 12  1  0  0  0
 11 42  1  0  0  0
 11 43  1  0  0  0
 12 13  1  0  0  0
 12 44  1  0  0  0
 12 45  1  0  0  0
 13 14  1  0  0  0
 13 46  1  0  0  0
 13 47  1  0  0  0
 14 15  1  0  0  0
 14 48  1  0  0  0
 14 49  1  0  0  0
 15 16  1  0  0  0
 15 50  1  0  0  0
 15 51  1  0  0  0
 16 17  1  0  0  0
 16 52  1  0  0  0
 16 53  1  0  0  0
 17 18  1  0  0  0
 17 54  1  0  0  0
 17 55  1  0  0  0
 18 19  1  0  0  0
 18 20  1  0  0  0
 18 56  1  0  0  0
 19 57  1  0  0  0
 19 58  1  0  0  0
 19 59  1  0  0  0
 20 60  1  0  0  0
 20 61  1  0  0  0
 20 62  1  0  0  0
M  END
>  <i_m_Spin_multiplicity> (1)
1

>  <s_j_Task> (1)
Single Point

>  <s_j_QM_Method> (1)
DFT(b3lyp-d3)

>  <s_j_QM_Basis> (1)
cc-pvtz(-f)

>  <i_j_Number_of_canonical_orbitals> (1)
832

>  <i_j_Geometry_convergence_category> (1)
3

>  <r_j_Gas_Phase_Energy> (1)
-787.793282832723

>  <r_j_Final_Energy> (1)
-787.793282832723

>  <r_j_HOMO> (1)
-0.274176381164654

>  <r_j_LUMO> (1)
-0.0210889727539426

>  <r_j_Polarizability> (1)
250.240216707314

>  <r_j_QM_Dipole_(debye)> (1)
0.120680006137523

>  <r_j_QM_Dipole_X_(debye)> (1)
0.11377411998197

>  <r_j_QM_Dipole_Y_(debye)> (1)
0.0274151298308888

>  <r_j_QM_Dipole_Z_(debye)> (1)
-0.0294537630878686

>  <r_j_Lowest_Frequency_(cm-1)> (1)
27.4349067524787

>  <r_j_Highest_Frequency_(cm-1)> (1)
3053.51062254308

>  <r_j_2nd_Lowest_Frequency_(cm-1)> (1)
34.4010714006971

>  <i_j_Num_Negative_Frequencies> (1)
0

>  <r_j_Zero_Point_Energy_(kcal/mol)> (1)
368.457901858687

>  <r_j_Entropy_(cal/mol/K)_298.15K_1.00E+00atm> (1)
164.094344643177

>  <r_j_Enthalpy_(kcal/mol)_298.15K_1.00E+00atm> (1)
16.1384340218008

>  <r_j_Free_Energy_(kcal/mol)_298.15K_1.00E+00atm> (1)
-32.7862948335624

>  <r_j_Internal_Energy_(kcal/mol)_298.15K_1.00E+00atm> (1)
15.5459484329735

>  <r_j_Heat_Capacity_(cal/mol/K)_298.15K_1.00E+00atm> (1)
95.4600076263502

>  <r_j_ln(Q)_298.15K_1.00E+00atm> (1)
55.3368646458682

>  <r_j_Total_Internal_Energy_(au)_298.15K_1.00E+00atm> (1)
-787.181333740876

>  <r_j_Total_Enthalpy_(au)_298.15K_1.00E+00atm> (1)
-787.180389554984

>  <r_j_Total_Free_Energy_(au)_298.15K_1.00E+00atm> (1)
-787.258356073729

>  <r_lp_tautomer_probability> (1)
1

>  <r_epik_Ionization_Penalty> (1)
  0.0000

>  <r_epik_Ionization_Penalty_Charging> (1)
  0.0000

>  <r_epik_Ionization_Penalty_Neutral> (1)
  0.0000

>  <r_epik_State_Penalty> (1)
  0.0000

>  <r_epik_Charging_Adjusted_Penalty> (1)
0

>  <i_epik_Tot_Q> (1)
0

>  <i_epik_Tot_abs_Q> (1)
0

>  <s_lp_Force_Field> (1)
S-OPLS

>  <r_lp_Energy> (1)
10.547852

>  <b_lp_Chiralities_Consistent> (1)
1

$$$$
