13721375_Dimethylethylcyclohexane
                    3D
 Schrodinger Suite 2021-3.
 30 30  0  0  1  0            999 V2000
   -0.6388    1.4732    0.1398 C   0  0  0  0  0  0
   -0.0429    0.0648    0.0352 C   0  0  0  0  0  0
    1.4925    0.0217   -0.0488 C   0  0  0  0  0  0
    2.0122   -1.4247    0.0384 C   0  0  0  0  0  0
    3.5439   -1.4979   -0.0404 C   0  0  0  0  0  0
    4.1344   -0.8210   -1.3012 C   0  0  0  0  0  0
    3.5774    0.6204   -1.3910 C   0  0  0  0  0  0
    2.0448    0.7019   -1.3152 C   0  0  0  0  0  0
    5.6666   -0.7664   -1.1773 C   0  0  0  0  0  0
    3.7769   -1.6230   -2.5686 C   0  0  0  0  0  0
   -1.7246    1.4331    0.2751 H   0  0  0  0  0  0
   -0.4426    2.0679   -0.7578 H   0  0  0  0  0  0
   -0.2170    2.0149    0.9946 H   0  0  0  0  0  0
   -0.3603   -0.5216    0.9080 H   0  0  0  0  0  0
   -0.4615   -0.4484   -0.8424 H   0  0  0  0  0  0
    1.8927    0.5691    0.8211 H   0  0  0  0  0  0
    1.6698   -1.8849    0.9741 H   0  0  0  0  0  0
    1.5630   -2.0151   -0.7721 H   0  0  0  0  0  0
    3.9627   -1.0008    0.8464 H   0  0  0  0  0  0
    3.8773   -2.5430    0.0052 H   0  0  0  0  0  0
    3.9979    1.2048   -0.5599 H   0  0  0  0  0  0
    3.9361    1.0950   -2.3138 H   0  0  0  0  0  0
    1.5948    0.2278   -2.1987 H   0  0  0  0  0  0
    1.7411    1.7543   -1.3463 H   0  0  0  0  0  0
    6.1155   -0.2815   -2.0521 H   0  0  0  0  0  0
    6.0913   -1.7740   -1.0989 H   0  0  0  0  0  0
    5.9729   -0.2034   -0.2881 H   0  0  0  0  0  0
    4.2048   -1.1481   -3.4588 H   0  0  0  0  0  0
    2.6980   -1.7037   -2.7256 H   0  0  0  0  0  0
    4.1781   -2.6410   -2.5067 H   0  0  0  0  0  0
  1  2  1  0  0  0
  1 11  1  0  0  0
  1 12  1  0  0  0
  1 13  1  0  0  0
  2  3  1  0  0  0
  2 14  1  0  0  0
  2 15  1  0  0  0
  3  8  1  0  0  0
  3  4  1  0  0  0
  3 16  1  0  0  0
  4  5  1  0  0  0
  4 17  1  0  0  0
  4 18  1  0  0  0
  5  6  1  0  0  0
  5 19  1  0  0  0
  5 20  1  0  0  0
  6  7  1  0  0  0
  6  9  1  0  0  0
  6 10  1  0  0  0
  7  8  1  0  0  0
  7 21  1  0  0  0
  7 22  1  0  0  0
  8 23  1  0  0  0
  8 24  1  0  0  0
  9 25  1  0  0  0
  9 26  1  0  0  0
  9 27  1  0  0  0
 10 28  1  0  0  0
 10 29  1  0  0  0
 10 30  1  0  0  0
M  END
>  <i_m_Spin_multiplicity> (1)
1

>  <s_j_Task> (1)
Single Point

>  <s_j_QM_Method> (1)
DFT(b3lyp-d3)

>  <s_j_QM_Basis> (1)
cc-pvtz(-f)

>  <i_j_Number_of_canonical_orbitals> (1)
406

>  <i_j_Geometry_convergence_category> (1)
3

>  <r_j_Gas_Phase_Energy> (1)
-393.294043739277

>  <r_j_Final_Energy> (1)
-393.294043739277

>  <r_j_HOMO> (1)
-0.286058860766231

>  <r_j_LUMO> (1)
0.0298307351097071

>  <r_j_Polarizability> (1)
117.552533237841

>  <r_j_QM_Dipole_(debye)> (1)
0.0926145988962239

>  <r_j_QM_Dipole_X_(debye)> (1)
-0.0723673429464609

>  <r_j_QM_Dipole_Y_(debye)> (1)
0.0132895507643766

>  <r_j_QM_Dipole_Z_(debye)> (1)
0.0562478394612523

>  <r_j_Lowest_Frequency_(cm-1)> (1)
89.9116374019872

>  <r_j_Highest_Frequency_(cm-1)> (1)
3060.94279073649

>  <r_j_2nd_Lowest_Frequency_(cm-1)> (1)
144.113214742275

>  <i_j_Num_Negative_Frequencies> (1)
0

>  <r_j_Zero_Point_Energy_(kcal/mol)> (1)
176.885666844284

>  <r_j_Entropy_(cal/mol/K)_298.15K_1.00E+00atm> (1)
96.9697186051842

>  <r_j_Enthalpy_(kcal/mol)_298.15K_1.00E+00atm> (1)
7.22530321870495

>  <r_j_Free_Energy_(kcal/mol)_298.15K_1.00E+00atm> (1)
-21.6862183834307

>  <r_j_Internal_Energy_(kcal/mol)_298.15K_1.00E+00atm> (1)
6.63281762987768

>  <r_j_Heat_Capacity_(cal/mol/K)_298.15K_1.00E+00atm> (1)
43.768918245542

>  <r_j_ln(Q)_298.15K_1.00E+00atm> (1)
36.6021027217809

>  <r_j_Total_Internal_Energy_(au)_298.15K_1.00E+00atm> (1)
-393.001588416692

>  <r_j_Total_Enthalpy_(au)_298.15K_1.00E+00atm> (1)
-393.0006442308

>  <r_j_Total_Free_Energy_(au)_298.15K_1.00E+00atm> (1)
-393.046717673487

>  <r_lp_tautomer_probability> (1)
1

>  <r_epik_Ionization_Penalty> (1)
  0.0000

>  <r_epik_Ionization_Penalty_Charging> (1)
  0.0000

>  <r_epik_Ionization_Penalty_Neutral> (1)
  0.0000

>  <r_epik_State_Penalty> (1)
  0.0000

>  <r_epik_Charging_Adjusted_Penalty> (1)
0

>  <i_epik_Tot_Q> (1)
0

>  <i_epik_Tot_abs_Q> (1)
0

>  <s_lp_Force_Field> (1)
S-OPLS

>  <r_lp_Energy> (1)
16.538752

>  <b_lp_Chiralities_Consistent> (1)
1

$$$$
