138026_2-Methyl-1,3-cyclopentadiene
                    3D
 Schrodinger Suite 2021-3.
 14 14  0  0  1  0            999 V2000
   -0.0128    0.0121    0.0001 C   0  0  0  0  0  0
    1.4934   -0.0203    0.0000 C   0  0  0  0  0  0
    2.2965   -1.1081   -0.0003 C   0  0  0  0  0  0
    3.7373   -0.6761   -0.0001 C   0  0  0  0  0  0
    3.6453    0.8260    0.0001 C   0  0  0  0  0  0
    2.3460    1.1818    0.0001 C   0  0  0  0  0  0
   -0.3902    1.0391   -0.0007 H   0  0  0  0  0  0
   -0.4244   -0.4902    0.8824 H   0  0  0  0  0  0
   -0.4246   -0.4917   -0.8813 H   0  0  0  0  0  0
    1.9788   -2.1445   -0.0003 H   0  0  0  0  0  0
    4.2838   -1.0522    0.8778 H   0  0  0  0  0  0
    4.2842   -1.0522   -0.8777 H   0  0  0  0  0  0
    4.5040    1.4863    0.0003 H   0  0  0  0  0  0
    1.9559    2.1950    0.0003 H   0  0  0  0  0  0
  1  2  1  0  0  0
  1  7  1  0  0  0
  1  8  1  0  0  0
  1  9  1  0  0  0
  2  6  1  0  0  0
  2  3  2  0  0  0
  3  4  1  0  0  0
  3 10  1  0  0  0
  4  5  1  0  0  0
  4 11  1  0  0  0
  4 12  1  0  0  0
  5  6  2  0  0  0
  5 13  1  0  0  0
  6 14  1  0  0  0
M  END
>  <i_m_Spin_multiplicity> (1)
1

>  <s_j_Task> (1)
Single Point

>  <s_j_QM_Method> (1)
DFT(b3lyp-d3)

>  <s_j_QM_Basis> (1)
cc-pvtz(-f)

>  <i_j_Number_of_canonical_orbitals> (1)
208

>  <i_j_Geometry_convergence_category> (1)
0

>  <r_j_Gas_Phase_Energy> (1)
-233.504361445914

>  <r_j_Final_Energy> (1)
-233.504361445914

>  <r_j_HOMO> (1)
-0.21502889460284

>  <r_j_LUMO> (1)
-0.0222689364428367

>  <r_j_Polarizability> (1)
66.1913359867861

>  <r_j_QM_Dipole_(debye)> (1)
0.2008489168269

>  <r_j_QM_Dipole_X_(debye)> (1)
0.0190866439571949

>  <r_j_QM_Dipole_Y_(debye)> (1)
-0.19993919009983

>  <r_j_QM_Dipole_Z_(debye)> (1)
0.000554684788132184

>  <r_j_Lowest_Frequency_(cm-1)> (1)
92.2089807336196

>  <r_j_Highest_Frequency_(cm-1)> (1)
3175.22460697834

>  <r_j_2nd_Lowest_Frequency_(cm-1)> (1)
250.425469031818

>  <i_j_Num_Negative_Frequencies> (1)
0

>  <r_j_Zero_Point_Energy_(kcal/mol)> (1)
74.900557439065

>  <r_j_Entropy_(cal/mol/K)_298.15K_1.00E+00atm> (1)
75.1300804844388

>  <r_j_Enthalpy_(kcal/mol)_298.15K_1.00E+00atm> (1)
4.18874824060123

>  <r_j_Free_Energy_(kcal/mol)_298.15K_1.00E+00atm> (1)
-18.2112852558342

>  <r_j_Internal_Energy_(kcal/mol)_298.15K_1.00E+00atm> (1)
3.59626265177396

>  <r_j_Heat_Capacity_(cal/mol/K)_298.15K_1.00E+00atm> (1)
21.376843936979

>  <r_j_ln(Q)_298.15K_1.00E+00atm> (1)
30.7370940310639

>  <r_j_Total_Internal_Energy_(au)_298.15K_1.00E+00atm> (1)
-233.379268799757

>  <r_j_Total_Enthalpy_(au)_298.15K_1.00E+00atm> (1)
-233.378324613865

>  <r_j_Total_Free_Energy_(au)_298.15K_1.00E+00atm> (1)
-233.414021339679

>  <r_lp_tautomer_probability> (1)
1

>  <r_epik_Ionization_Penalty> (1)
  0.0000

>  <r_epik_Ionization_Penalty_Charging> (1)
  0.0000

>  <r_epik_Ionization_Penalty_Neutral> (1)
  0.0000

>  <r_epik_State_Penalty> (1)
  0.0000

>  <r_epik_Charging_Adjusted_Penalty> (1)
0

>  <i_epik_Tot_Q> (1)
0

>  <i_epik_Tot_abs_Q> (1)
0

>  <s_lp_Force_Field> (1)
S-OPLS

>  <r_lp_Energy> (1)
-4.14056

>  <b_lp_Chiralities_Consistent> (1)
1

$$$$
