138270_Propyl heptene
                    3D
 Schrodinger Suite 2021-3.
 30 29  0  0  1  0            999 V2000
   -2.2716    1.5744   -0.2582 C   0  0  0  0  0  0
   -0.7414    1.6197   -0.2898 C   0  0  0  0  0  0
   -0.1004    0.2389   -0.0491 C   0  0  0  0  0  0
    1.4137    0.2830   -0.0234 C   0  0  0  0  0  0
    2.1292   -0.1088   -1.0880 C   0  0  0  0  0  0
    3.6269   -0.1518   -1.2302 C   0  0  0  0  0  0
    4.1511   -1.5924   -1.3703 C   0  0  0  0  0  0
    2.0357    0.7600    1.2745 C   0  0  0  0  0  0
    2.3567   -0.4080    2.2279 C   0  0  0  0  0  0
    2.9164    0.0593    3.5736 C   0  0  0  0  0  0
   -2.7070    2.5615   -0.4462 H   0  0  0  0  0  0
   -2.6360    1.2282    0.7160 H   0  0  0  0  0  0
   -2.6612    0.8874   -1.0184 H   0  0  0  0  0  0
   -0.3959    1.9990   -1.2597 H   0  0  0  0  0  0
   -0.3786    2.3316    0.4628 H   0  0  0  0  0  0
   -0.4725   -0.1611    0.9060 H   0  0  0  0  0  0
   -0.4457   -0.4512   -0.8291 H   0  0  0  0  0  0
    1.5820   -0.4773   -1.9582 H   0  0  0  0  0  0
    3.9228    0.4188   -2.1223 H   0  0  0  0  0  0
    4.1181    0.3305   -0.3789 H   0  0  0  0  0  0
    5.2361   -1.6084   -1.5183 H   0  0  0  0  0  0
    3.6877   -2.0983   -2.2247 H   0  0  0  0  0  0
    3.9185   -2.1786   -0.4751 H   0  0  0  0  0  0
    2.9526    1.3311    1.0890 H   0  0  0  0  0  0
    1.3478    1.4494    1.7814 H   0  0  0  0  0  0
    1.4481   -1.0030    2.3882 H   0  0  0  0  0  0
    3.0734   -1.0761    1.7350 H   0  0  0  0  0  0
    3.1446   -0.7874    4.2295 H   0  0  0  0  0  0
    2.2006    0.7041    4.0965 H   0  0  0  0  0  0
    3.8396    0.6344    3.4370 H   0  0  0  0  0  0
  1  2  1  0  0  0
  1 11  1  0  0  0
  1 12  1  0  0  0
  1 13  1  0  0  0
  2  3  1  0  0  0
  2 14  1  0  0  0
  2 15  1  0  0  0
  3  4  1  0  0  0
  3 16  1  0  0  0
  3 17  1  0  0  0
  4  5  2  0  0  0
  4  8  1  0  0  0
  5  6  1  0  0  0
  5 18  1  0  0  0
  6  7  1  0  0  0
  6 19  1  0  0  0
  6 20  1  0  0  0
  7 21  1  0  0  0
  7 22  1  0  0  0
  7 23  1  0  0  0
  8  9  1  0  0  0
  8 24  1  0  0  0
  8 25  1  0  0  0
  9 10  1  0  0  0
  9 26  1  0  0  0
  9 27  1  0  0  0
 10 28  1  0  0  0
 10 29  1  0  0  0
 10 30  1  0  0  0
M  END
>  <i_m_Spin_multiplicity> (1)
1

>  <s_j_Task> (1)
Single Point

>  <s_j_QM_Method> (1)
DFT(b3lyp-d3)

>  <s_j_QM_Basis> (1)
cc-pvtz(-f)

>  <i_j_Number_of_canonical_orbitals> (1)
406

>  <i_j_Geometry_convergence_category> (1)
3

>  <r_j_Gas_Phase_Energy> (1)
-393.267543233568

>  <r_j_Final_Energy> (1)
-393.267543233568

>  <r_j_HOMO> (1)
-0.23105158697131

>  <r_j_LUMO> (1)
0.0165858759584137

>  <r_j_Polarizability> (1)
124.630673905052

>  <r_j_QM_Dipole_(debye)> (1)
0.209320291193628

>  <r_j_QM_Dipole_X_(debye)> (1)
0.0631116557100423

>  <r_j_QM_Dipole_Y_(debye)> (1)
0.0602274744339864

>  <r_j_QM_Dipole_Z_(debye)> (1)
0.190274944599193

>  <r_j_Lowest_Frequency_(cm-1)> (1)
68.29839118166

>  <r_j_Highest_Frequency_(cm-1)> (1)
3063.76175608849

>  <r_j_2nd_Lowest_Frequency_(cm-1)> (1)
79.3845069589121

>  <i_j_Num_Negative_Frequencies> (1)
0

>  <r_j_Zero_Point_Energy_(kcal/mol)> (1)
174.848917395218

>  <r_j_Entropy_(cal/mol/K)_298.15K_1.00E+00atm> (1)
107.615417677864

>  <r_j_Enthalpy_(kcal/mol)_298.15K_1.00E+00atm> (1)
8.38382953082236

>  <r_j_Free_Energy_(kcal/mol)_298.15K_1.00E+00atm> (1)
-23.7017072498327

>  <r_j_Internal_Energy_(kcal/mol)_298.15K_1.00E+00atm> (1)
7.79134394199509

>  <r_j_Heat_Capacity_(cal/mol/K)_298.15K_1.00E+00atm> (1)
46.7760460929296

>  <r_j_ln(Q)_298.15K_1.00E+00atm> (1)
40.0038544342424

>  <r_j_Total_Internal_Energy_(au)_298.15K_1.00E+00atm> (1)
-392.976487448645

>  <r_j_Total_Enthalpy_(au)_298.15K_1.00E+00atm> (1)
-392.975543262753

>  <r_j_Total_Free_Energy_(au)_298.15K_1.00E+00atm> (1)
-393.026674820625

>  <r_lp_tautomer_probability> (1)
1

>  <r_epik_Ionization_Penalty> (1)
  0.0000

>  <r_epik_Ionization_Penalty_Charging> (1)
  0.0000

>  <r_epik_Ionization_Penalty_Neutral> (1)
  0.0000

>  <r_epik_State_Penalty> (1)
  0.0000

>  <r_epik_Charging_Adjusted_Penalty> (1)
0

>  <i_epik_Tot_Q> (1)
0

>  <i_epik_Tot_abs_Q> (1)
0

>  <s_lp_Force_Field> (1)
S-OPLS

>  <r_lp_Energy> (1)
-0.638309

>  <b_lp_Chiralities_Consistent> (1)
1

$$$$
