138257_Hexylcyclopentane
                    3D
 Schrodinger Suite 2021-3.
 33 33  0  0  1  0            999 V2000
   -2.2076    1.5563   -0.1278 C   0  0  0  0  0  0
   -0.6767    1.5100   -0.1247 C   0  0  0  0  0  0
   -0.1182    0.0857   -0.0195 C   0  0  0  0  0  0
    1.4136    0.0301   -0.0184 C   0  0  0  0  0  0
    1.9743   -1.3924    0.0909 C   0  0  0  0  0  0
    3.5075   -1.4405    0.0894 C   0  0  0  0  0  0
    4.0904   -2.8543    0.1570 C   0  0  0  0  0  0
    5.6273   -2.9135    0.1113 C   0  0  0  0  0  0
    5.9459   -4.3600    0.5241 C   0  0  0  0  0  0
    4.8738   -4.7117    1.5946 C   0  0  0  0  0  0
    3.7617   -3.6330    1.4520 C   0  0  0  0  0  0
   -2.5802    2.5833   -0.2028 H   0  0  0  0  0  0
   -2.6168    1.1190    0.7904 H   0  0  0  0  0  0
   -2.6172    0.9902   -0.9726 H   0  0  0  0  0  0
   -0.2924    1.9818   -1.0395 H   0  0  0  0  0  0
   -0.2919    2.1110    0.7107 H   0  0  0  0  0  0
   -0.5008   -0.3871    0.8967 H   0  0  0  0  0  0
   -0.5040   -0.5177   -0.8540 H   0  0  0  0  0  0
    1.7946    0.5016   -0.9358 H   0  0  0  0  0  0
    1.7981    0.6364    0.8145 H   0  0  0  0  0  0
    1.5923   -1.8610    1.0079 H   0  0  0  0  0  0
    1.5917   -1.9996   -0.7423 H   0  0  0  0  0  0
    3.8808   -0.9398   -0.8152 H   0  0  0  0  0  0
    3.8905   -0.8576    0.9405 H   0  0  0  0  0  0
    3.7065   -3.4300   -0.7003 H   0  0  0  0  0  0
    6.0377   -2.6404   -0.8670 H   0  0  0  0  0  0
    6.0385   -2.2071    0.8467 H   0  0  0  0  0  0
    5.8364   -5.0174   -0.3468 H   0  0  0  0  0  0
    6.9693   -4.4859    0.8910 H   0  0  0  0  0  0
    4.4806   -5.7217    1.4420 H   0  0  0  0  0  0
    5.3014   -4.6944    2.6022 H   0  0  0  0  0  0
    3.7956   -2.9378    2.3012 H   0  0  0  0  0  0
    2.7561   -4.0640    1.4388 H   0  0  0  0  0  0
  1  2  1  0  0  0
  1 12  1  0  0  0
  1 13  1  0  0  0
  1 14  1  0  0  0
  2  3  1  0  0  0
  2 15  1  0  0  0
  2 16  1  0  0  0
  3  4  1  0  0  0
  3 17  1  0  0  0
  3 18  1  0  0  0
  4  5  1  0  0  0
  4 19  1  0  0  0
  4 20  1  0  0  0
  5  6  1  0  0  0
  5 21  1  0  0  0
  5 22  1  0  0  0
  6  7  1  0  0  0
  6 23  1  0  0  0
  6 24  1  0  0  0
  7 11  1  0  0  0
  7  8  1  0  0  0
  7 25  1  0  0  0
  8  9  1  0  0  0
  8 26  1  0  0  0
  8 27  1  0  0  0
  9 10  1  0  0  0
  9 28  1  0  0  0
  9 29  1  0  0  0
 10 11  1  0  0  0
 10 30  1  0  0  0
 10 31  1  0  0  0
 11 32  1  0  0  0
 11 33  1  0  0  0
M  END
>  <i_m_Spin_multiplicity> (1)
1

>  <s_j_Task> (1)
Single Point

>  <s_j_QM_Method> (1)
DFT(b3lyp-d3)

>  <s_j_QM_Basis> (1)
cc-pvtz(-f)

>  <i_j_Number_of_canonical_orbitals> (1)
447

>  <i_j_Geometry_convergence_category> (1)
3

>  <r_j_Gas_Phase_Energy> (1)
-432.611670437298

>  <r_j_Final_Energy> (1)
-432.611670437298

>  <r_j_HOMO> (1)
-0.305006173008146

>  <r_j_LUMO> (1)
0.00701937037524366

>  <r_j_Polarizability> (1)
131.778281542807

>  <r_j_QM_Dipole_(debye)> (1)
0.0652843425509418

>  <r_j_QM_Dipole_X_(debye)> (1)
0.0205432979108298

>  <r_j_QM_Dipole_Y_(debye)> (1)
-0.00554082486576107

>  <r_j_QM_Dipole_Z_(debye)> (1)
-0.0617196690939166

>  <r_j_Lowest_Frequency_(cm-1)> (1)
64.1701035771408

>  <r_j_Highest_Frequency_(cm-1)> (1)
3047.75106979528

>  <r_j_2nd_Lowest_Frequency_(cm-1)> (1)
80.0002912082013

>  <i_j_Num_Negative_Frequencies> (1)
0

>  <r_j_Zero_Point_Energy_(kcal/mol)> (1)
194.769566035666

>  <r_j_Entropy_(cal/mol/K)_298.15K_1.00E+00atm> (1)
107.973454270417

>  <r_j_Enthalpy_(kcal/mol)_298.15K_1.00E+00atm> (1)
8.3256692654906

>  <r_j_Free_Energy_(kcal/mol)_298.15K_1.00E+00atm> (1)
-23.8666161252342

>  <r_j_Internal_Energy_(kcal/mol)_298.15K_1.00E+00atm> (1)
7.73318367666332

>  <r_j_Heat_Capacity_(cal/mol/K)_298.15K_1.00E+00atm> (1)
47.5398037222082

>  <r_j_ln(Q)_298.15K_1.00E+00atm> (1)
40.2821884199313

>  <r_j_Total_Internal_Energy_(au)_298.15K_1.00E+00atm> (1)
-432.288961762141

>  <r_j_Total_Enthalpy_(au)_298.15K_1.00E+00atm> (1)
-432.288017576249

>  <r_j_Total_Free_Energy_(au)_298.15K_1.00E+00atm> (1)
-432.339319248861

>  <r_lp_tautomer_probability> (1)
1

>  <r_epik_Ionization_Penalty> (1)
  0.0000

>  <r_epik_Ionization_Penalty_Charging> (1)
  0.0000

>  <r_epik_Ionization_Penalty_Neutral> (1)
  0.0000

>  <r_epik_State_Penalty> (1)
  0.0000

>  <r_epik_Charging_Adjusted_Penalty> (1)
0

>  <i_epik_Tot_Q> (1)
0

>  <i_epik_Tot_abs_Q> (1)
0

>  <s_lp_Force_Field> (1)
S-OPLS

>  <r_lp_Energy> (1)
9.555567

>  <b_lp_Chiralities_Consistent> (1)
1

$$$$
