13828362_Pentacosanedioic acid
                    3D
 Schrodinger Suite 2021-3.
 75 74  0  0  1  0            999 V2000
    0.1464   -0.5624   -0.0880 C   0  0  0  0  0  0
    1.6760   -0.4741   -0.1500 C   0  0  0  0  0  0
    2.3882   -1.8291   -0.0410 C   0  0  0  0  0  0
    3.9234   -1.7264   -0.0404 C   0  0  0  0  0  0
    4.5258   -1.2351   -1.3638 C   0  0  0  0  0  0
    6.0476   -1.0487   -1.3201 C   0  0  0  0  0  0
    6.6306   -0.5478   -2.6475 C   0  0  0  0  0  0
    8.1227   -0.1992   -2.5879 C   0  0  0  0  0  0
    8.6814    0.3128   -3.9218 C   0  0  0  0  0  0
   10.1365    0.7867   -3.8466 C   0  0  0  0  0  0
   10.6825    1.2949   -5.1863 C   0  0  0  0  0  0
   12.1253    1.7990   -5.0891 C   0  0  0  0  0  0
   13.2051    0.6873   -4.7896 C   0  0  0  0  0  0
   14.3619    1.1299   -4.5938 O   0  0  0  0  0  0
   12.7924   -0.5046   -4.7970 O   0  5  0  0  0  0
   -0.5277    0.8092   -0.2129 C   0  0  0  0  0  0
   -2.0593    0.7680   -0.1627 C   0  0  0  0  0  0
   -2.6902    2.1604   -0.3019 C   0  0  0  0  0  0
   -4.2213    2.1927   -0.1859 C   0  0  0  0  0  0
   -4.9669    1.4415   -1.2975 C   0  0  0  0  0  0
   -6.4863    1.6383   -1.2359 C   0  0  0  0  0  0
   -7.2510    0.8589   -2.3141 C   0  0  0  0  0  0
   -8.7606    1.1487   -2.3494 C   0  0  0  0  0  0
   -9.5283    0.7549   -1.0792 C   0  0  0  0  0  0
  -11.0388    1.0033   -1.1765 C   0  0  0  0  0  0
  -11.8234    0.6549    0.0883 C   0  0  0  0  0  0
  -13.3271    1.1393    0.0630 C   0  0  0  0  0  0
  -14.1034    0.4904    0.8057 O   0  0  0  0  0  0
  -13.5609    2.1360   -0.6700 O   0  5  0  0  0  0
   -0.2152   -1.2220   -0.8899 H   0  0  0  0  0  0
   -0.1584   -1.0373    0.8559 H   0  0  0  0  0  0
    1.9606    0.0205   -1.0874 H   0  0  0  0  0  0
    2.0326    0.1830    0.6570 H   0  0  0  0  0  0
    2.0596   -2.3279    0.8816 H   0  0  0  0  0  0
    2.0654   -2.4777   -0.8683 H   0  0  0  0  0  0
    4.2357   -1.0523    0.7708 H   0  0  0  0  0  0
    4.3524   -2.7084    0.2016 H   0  0  0  0  0  0
    4.2633   -1.9425   -2.1642 H   0  0  0  0  0  0
    4.0692   -0.2780   -1.6473 H   0  0  0  0  0  0
    6.2964   -0.3330   -0.5228 H   0  0  0  0  0  0
    6.5313   -1.9949   -1.0377 H   0  0  0  0  0  0
    6.4603   -1.3043   -3.4275 H   0  0  0  0  0  0
    6.0709    0.3435   -2.9686 H   0  0  0  0  0  0
    8.2794    0.5654   -1.8124 H   0  0  0  0  0  0
    8.6980   -1.0781   -2.2645 H   0  0  0  0  0  0
    8.5959   -0.4825   -4.6768 H   0  0  0  0  0  0
    8.0443    1.1372   -4.2806 H   0  0  0  0  0  0
   10.2130    1.5862   -3.0920 H   0  0  0  0  0  0
   10.7942   -0.0283   -3.5261 H   0  0  0  0  0  0
   10.6644    0.4613   -5.8992 H   0  0  0  0  0  0
   10.0156    2.0834   -5.5770 H   0  0  0  0  0  0
   12.4183    2.2864   -6.0305 H   0  0  0  0  0  0
   12.2143    2.5764   -4.3161 H   0  0  0  0  0  0
   -0.1572    1.4663    0.5876 H   0  0  0  0  0  0
   -0.2117    1.2792   -1.1555 H   0  0  0  0  0  0
   -2.4288    0.1081   -0.9584 H   0  0  0  0  0  0
   -2.3846    0.3141    0.7848 H   0  0  0  0  0  0
   -2.2601    2.8181    0.4666 H   0  0  0  0  0  0
   -2.3931    2.5922   -1.2689 H   0  0  0  0  0  0
   -4.5222    1.7851    0.7900 H   0  0  0  0  0  0
   -4.5516    3.2407   -0.1883 H   0  0  0  0  0  0
   -4.5936    1.7792   -2.2761 H   0  0  0  0  0  0
   -4.7399    0.3683   -1.2414 H   0  0  0  0  0  0
   -6.8468    1.3437   -0.2425 H   0  0  0  0  0  0
   -6.7164    2.7095   -1.3340 H   0  0  0  0  0  0
   -6.8119    1.0924   -3.2957 H   0  0  0  0  0  0
   -7.0900   -0.2183   -2.1583 H   0  0  0  0  0  0
   -8.9176    2.2197   -2.5448 H   0  0  0  0  0  0
   -9.2021    0.6211   -3.2065 H   0  0  0  0  0  0
   -9.3346   -0.3070   -0.8587 H   0  0  0  0  0  0
   -9.1339    1.3147   -0.2193 H   0  0  0  0  0  0
  -11.2458    2.0560   -1.4029 H   0  0  0  0  0  0
  -11.4453    0.4357   -2.0272 H   0  0  0  0  0  0
  -11.8020   -0.4242    0.2906 H   0  0  0  0  0  0
  -11.3415    1.1366    0.9555 H   0  0  0  0  0  0
  1  2  1  0  0  0
  1 16  1  0  0  0
  1 30  1  0  0  0
  1 31  1  0  0  0
  2  3  1  0  0  0
  2 32  1  0  0  0
  2 33  1  0  0  0
  3  4  1  0  0  0
  3 34  1  0  0  0
  3 35  1  0  0  0
  4  5  1  0  0  0
  4 36  1  0  0  0
  4 37  1  0  0  0
  5  6  1  0  0  0
  5 38  1  0  0  0
  5 39  1  0  0  0
  6  7  1  0  0  0
  6 40  1  0  0  0
  6 41  1  0  0  0
  7  8  1  0  0  0
  7 42  1  0  0  0
  7 43  1  0  0  0
  8  9  1  0  0  0
  8 44  1  0  0  0
  8 45  1  0  0  0
  9 10  1  0  0  0
  9 46  1  0  0  0
  9 47  1  0  0  0
 10 11  1  0  0  0
 10 48  1  0  0  0
 10 49  1  0  0  0
 11 12  1  0  0  0
 11 50  1  0  0  0
 11 51  1  0  0  0
 12 13  1  0  0  0
 12 52  1  0  0  0
 12 53  1  0  0  0
 13 14  2  0  0  0
 13 15  1  0  0  0
 16 17  1  0  0  0
 16 54  1  0  0  0
 16 55  1  0  0  0
 17 18  1  0  0  0
 17 56  1  0  0  0
 17 57  1  0  0  0
 18 19  1  0  0  0
 18 58  1  0  0  0
 18 59  1  0  0  0
 19 20  1  0  0  0
 19 60  1  0  0  0
 19 61  1  0  0  0
 20 21  1  0  0  0
 20 62  1  0  0  0
 20 63  1  0  0  0
 21 22  1  0  0  0
 21 64  1  0  0  0
 21 65  1  0  0  0
 22 23  1  0  0  0
 22 66  1  0  0  0
 22 67  1  0  0  0
 23 24  1  0  0  0
 23 68  1  0  0  0
 23 69  1  0  0  0
 24 25  1  0  0  0
 24 70  1  0  0  0
 24 71  1  0  0  0
 25 26  1  0  0  0
 25 72  1  0  0  0
 25 73  1  0  0  0
 26 27  1  0  0  0
 26 74  1  0  0  0
 26 75  1  0  0  0
 27 28  2  0  0  0
 27 29  1  0  0  0
M  END
>  <s_lp_Force_Field> (1)
S-OPLS

>  <r_lp_Energy> (1)
16.467052

>  <b_lp_Chiralities_Consistent> (1)
1

>  <r_epik_Ionization_Penalty> (1)
  0.0097

>  <r_epik_Ionization_Penalty_Charging> (1)
  0.0097

>  <r_epik_Ionization_Penalty_Neutral> (1)
  0.0000

>  <r_epik_State_Penalty> (1)
  0.0074

>  <r_epik_Charging_Adjusted_Penalty> (1)
0.0170680524587756

>  <i_epik_Tot_Q> (1)
-2

>  <i_epik_Tot_abs_Q> (1)
2

>  <i_m_Spin_multiplicity> (1)
1

>  <s_j_Task> (1)
Single Point

>  <s_j_QM_Method> (1)
DFT(b3lyp-d3)

>  <s_j_QM_Basis> (1)
6-31g**

>  <i_j_Number_of_canonical_orbitals> (1)
665

>  <i_j_Geometry_convergence_category> (1)
3

>  <r_j_Gas_Phase_Energy> (1)
-1281.50396234574

>  <r_j_Final_Energy> (1)
-1281.50396234574

>  <r_j_HOMO> (1)
0.0162333941013255

>  <r_j_LUMO> (1)
0.175352280467321

>  <r_j_Polarizability> (1)
290.384626720687

>  <r_j_QM_Dipole_(debye)> (1)
6.78344377160773

>  <r_j_QM_Dipole_X_(debye)> (1)
3.11821182155779

>  <r_j_QM_Dipole_Y_(debye)> (1)
-2.78215968481418

>  <r_j_QM_Dipole_Z_(debye)> (1)
5.34335586749148

>  <r_j_Lowest_Frequency_(cm-1)> (1)
-16.8730047200465

>  <r_j_Highest_Frequency_(cm-1)> (1)
3096.49583968565

>  <r_j_2nd_Lowest_Frequency_(cm-1)> (1)
-9.51310882631801

>  <i_j_Num_Negative_Frequencies> (1)
2

>  <r_j_Zero_Point_Energy_(kcal/mol)> (1)
427.262441939683

>  <r_j_Entropy_(cal/mol/K)_298.15K_1.00E+00atm> (1)
200.865585855981

>  <r_j_Enthalpy_(kcal/mol)_298.15K_1.00E+00atm> (1)
20.8300761660265

>  <r_j_Free_Energy_(kcal/mol)_298.15K_1.00E+00atm> (1)
-39.0579982569342

>  <r_j_Internal_Energy_(kcal/mol)_298.15K_1.00E+00atm> (1)
20.2375905771993

>  <r_j_Heat_Capacity_(cal/mol/K)_298.15K_1.00E+00atm> (1)
122.013901305255

>  <r_j_ln(Q)_298.15K_1.00E+00atm> (1)
65.9222755683272

>  <r_j_Total_Internal_Energy_(au)_298.15K_1.00E+00atm> (1)
-1280.79082564596

>  <r_j_Total_Enthalpy_(au)_298.15K_1.00E+00atm> (1)
-1280.78988146007

>  <r_j_Total_Free_Energy_(au)_298.15K_1.00E+00atm> (1)
-1280.88531918218

$$$$
