13845_3-methylundecane
                    3D
 Schrodinger Suite 2021-3.
 38 37  0  0  1  0            999 V2000
   -4.8079    4.3616   -0.1047 C   0  0  0  0  0  0
   -4.2326    2.9427   -0.0660 C   0  0  0  0  0  0
   -2.6999    2.9165   -0.0355 C   0  0  0  0  0  0
   -2.1155    1.5000   -0.0014 C   0  0  0  0  0  0
   -0.5835    1.4712    0.0328 C   0  0  0  0  0  0
   -0.0023    0.0532    0.0585 C   0  0  0  0  0  0
    1.5301    0.0239    0.0989 C   0  0  0  0  0  0
    2.1004   -1.3999    0.1232 C   0  0  0  0  0  0
    3.6376   -1.5007    0.0551 C   0  0  0  0  0  0
    4.0570   -2.9657   -0.1421 C   0  0  0  0  0  0
    4.3088   -0.8762    1.2949 C   0  0  0  0  0  0
    5.8407   -0.8455    1.2464 C   0  0  0  0  0  0
   -5.9027    4.3526   -0.1252 H   0  0  0  0  0  0
   -4.4620    4.9028   -0.9930 H   0  0  0  0  0  0
   -4.4952    4.9377    0.7739 H   0  0  0  0  0  0
   -4.6201    2.4120    0.8144 H   0  0  0  0  0  0
   -4.5858    2.3782   -0.9398 H   0  0  0  0  0  0
   -2.3104    3.4502   -0.9145 H   0  0  0  0  0  0
   -2.3448    3.4786    0.8404 H   0  0  0  0  0  0
   -2.5081    0.9660    0.8758 H   0  0  0  0  0  0
   -2.4697    0.9402   -0.8790 H   0  0  0  0  0  0
   -0.1897    2.0094   -0.8414 H   0  0  0  0  0  0
   -0.2291    2.0258    0.9136 H   0  0  0  0  0  0
   -0.3984   -0.4863    0.9308 H   0  0  0  0  0  0
   -0.3547   -0.5000   -0.8239 H   0  0  0  0  0  0
    1.9273    0.5584   -0.7763 H   0  0  0  0  0  0
    1.8701    0.5858    0.9780 H   0  0  0  0  0  0
    1.7487   -1.9188    1.0276 H   0  0  0  0  0  0
    1.6774   -1.9566   -0.7248 H   0  0  0  0  0  0
    3.9707   -0.9308   -0.8270 H   0  0  0  0  0  0
    3.7794   -3.5681    0.7320 H   0  0  0  0  0  0
    5.1358   -3.0697   -0.2897 H   0  0  0  0  0  0
    3.5615   -3.4018   -1.0163 H   0  0  0  0  0  0
    3.9466    0.1506    1.4201 H   0  0  0  0  0  0
    3.9788   -1.4266    2.1882 H   0  0  0  0  0  0
    6.2490   -0.3047    2.1064 H   0  0  0  0  0  0
    6.1945   -0.3416    0.3391 H   0  0  0  0  0  0
    6.2730   -1.8505    1.2570 H   0  0  0  0  0  0
  1  2  1  0  0  0
  1 13  1  0  0  0
  1 14  1  0  0  0
  1 15  1  0  0  0
  2  3  1  0  0  0
  2 16  1  0  0  0
  2 17  1  0  0  0
  3  4  1  0  0  0
  3 18  1  0  0  0
  3 19  1  0  0  0
  4  5  1  0  0  0
  4 20  1  0  0  0
  4 21  1  0  0  0
  5  6  1  0  0  0
  5 22  1  0  0  0
  5 23  1  0  0  0
  6  7  1  0  0  0
  6 24  1  0  0  0
  6 25  1  0  0  0
  7  8  1  0  0  0
  7 26  1  0  0  0
  7 27  1  0  0  0
  8  9  1  0  0  0
  8 28  1  0  0  0
  8 29  1  0  0  0
  9 10  1  0  0  0
  9 11  1  0  0  0
  9 30  1  0  0  0
 10 31  1  0  0  0
 10 32  1  0  0  0
 10 33  1  0  0  0
 11 12  1  0  0  0
 11 34  1  0  0  0
 11 35  1  0  0  0
 12 36  1  0  0  0
 12 37  1  0  0  0
 12 38  1  0  0  0
M  END
>  <i_m_Spin_multiplicity> (1)
1

>  <s_j_Task> (1)
Single Point

>  <s_j_QM_Method> (1)
DFT(b3lyp-d3)

>  <s_j_QM_Basis> (1)
cc-pvtz(-f)

>  <i_j_Number_of_canonical_orbitals> (1)
506

>  <i_j_Geometry_convergence_category> (1)
0

>  <r_j_Gas_Phase_Energy> (1)
-473.158213547189

>  <r_j_Final_Energy> (1)
-473.158213547189

>  <r_j_HOMO> (1)
-0.291219854336527

>  <r_j_LUMO> (1)
0.0249236203970868

>  <r_j_Polarizability> (1)
149.870505444163

>  <r_j_QM_Dipole_(debye)> (1)
0.0625984427651248

>  <r_j_QM_Dipole_X_(debye)> (1)
-0.0368233130123913

>  <r_j_QM_Dipole_Y_(debye)> (1)
0.0482000714294354

>  <r_j_QM_Dipole_Z_(debye)> (1)
-0.0154713208746823

>  <r_j_Lowest_Frequency_(cm-1)> (1)
51.1160587571726

>  <r_j_Highest_Frequency_(cm-1)> (1)
3060.40971821666

>  <r_j_2nd_Lowest_Frequency_(cm-1)> (1)
62.1944358041982

>  <i_j_Num_Negative_Frequencies> (1)
0

>  <r_j_Zero_Point_Energy_(kcal/mol)> (1)
225.383645510864

>  <r_j_Entropy_(cal/mol/K)_298.15K_1.00E+00atm> (1)
120.464725752665

>  <r_j_Enthalpy_(kcal/mol)_298.15K_1.00E+00atm> (1)
10.1221427599925

>  <r_j_Free_Energy_(kcal/mol)_298.15K_1.00E+00atm> (1)
-25.7944152231645

>  <r_j_Internal_Energy_(kcal/mol)_298.15K_1.00E+00atm> (1)
9.52965717116527

>  <r_j_Heat_Capacity_(cal/mol/K)_298.15K_1.00E+00atm> (1)
57.7033027149067

>  <r_j_ln(Q)_298.15K_1.00E+00atm> (1)
43.5359369233271

>  <r_j_Total_Internal_Energy_(au)_298.15K_1.00E+00atm> (1)
-472.78385536789

>  <r_j_Total_Enthalpy_(au)_298.15K_1.00E+00atm> (1)
-472.782911181998

>  <r_j_Total_Free_Energy_(au)_298.15K_1.00E+00atm> (1)
-472.840147860806

>  <r_lp_tautomer_probability> (1)
1

>  <r_epik_Ionization_Penalty> (1)
  0.0000

>  <r_epik_Ionization_Penalty_Charging> (1)
  0.0000

>  <r_epik_Ionization_Penalty_Neutral> (1)
  0.0000

>  <r_epik_State_Penalty> (1)
  0.0000

>  <r_epik_Charging_Adjusted_Penalty> (1)
0

>  <i_epik_Tot_Q> (1)
0

>  <i_epik_Tot_abs_Q> (1)
0

>  <s_lp_Force_Field> (1)
S-OPLS

>  <r_lp_Energy> (1)
6.319404

>  <b_lp_Chiralities_Consistent> (1)
1

$$$$
