13861_2-Butyltetrahydrofuran
                    3D
 Schrodinger Suite 2021-3.
 25 25  0  0  1  0            999 V2000
   -0.5969    1.4983   -0.0529 C   0  0  0  0  0  0
   -0.0537    0.0719    0.0739 C   0  0  0  0  0  0
    1.4725    0.0012   -0.0464 C   0  0  0  0  0  0
    2.0206   -1.4249    0.0731 C   0  0  0  0  0  0
    3.5334   -1.5026   -0.0659 C   0  0  0  0  0  0
    4.1441   -2.9082    0.0075 C   0  0  0  0  0  0
    5.4841   -2.7330   -0.7377 C   0  0  0  0  0  0
    5.2423   -1.4721   -1.6150 C   0  0  0  0  0  0
    3.9025   -1.0439   -1.3700 O   0  0  0  0  0  0
   -1.6883    1.5239    0.0332 H   0  0  0  0  0  0
   -0.3273    1.9366   -1.0206 H   0  0  0  0  0  0
   -0.1851    2.1477    0.7284 H   0  0  0  0  0  0
   -0.3636   -0.3559    1.0376 H   0  0  0  0  0  0
   -0.5066   -0.5637   -0.6993 H   0  0  0  0  0  0
    1.7907    0.4203   -1.0083 H   0  0  0  0  0  0
    1.9286    0.6325    0.7299 H   0  0  0  0  0  0
    1.7381   -1.8562    1.0432 H   0  0  0  0  0  0
    1.5740   -2.0616   -0.7020 H   0  0  0  0  0  0
    4.0063   -0.8575    0.6997 H   0  0  0  0  0  0
    4.2637   -3.2674    1.0337 H   0  0  0  0  0  0
    3.4912   -3.6085   -0.5253 H   0  0  0  0  0  0
    6.3060   -2.5627   -0.0354 H   0  0  0  0  0  0
    5.7429   -3.6112   -1.3351 H   0  0  0  0  0  0
    5.9521   -0.6726   -1.3524 H   0  0  0  0  0  0
    5.3359   -1.6670   -2.6879 H   0  0  0  0  0  0
  1  2  1  0  0  0
  1 10  1  0  0  0
  1 11  1  0  0  0
  1 12  1  0  0  0
  2  3  1  0  0  0
  2 13  1  0  0  0
  2 14  1  0  0  0
  3  4  1  0  0  0
  3 15  1  0  0  0
  3 16  1  0  0  0
  4  5  1  0  0  0
  4 17  1  0  0  0
  4 18  1  0  0  0
  5  9  1  0  0  0
  5  6  1  0  0  0
  5 19  1  0  0  0
  6  7  1  0  0  0
  6 20  1  0  0  0
  6 21  1  0  0  0
  7  8  1  0  0  0
  7 22  1  0  0  0
  7 23  1  0  0  0
  8  9  1  0  0  0
  8 24  1  0  0  0
  8 25  1  0  0  0
M  END
>  <i_m_Spin_multiplicity> (1)
1

>  <s_j_Task> (1)
Single Point

>  <s_j_QM_Method> (1)
DFT(b3lyp-d3)

>  <s_j_QM_Basis> (1)
cc-pvtz(-f)

>  <i_j_Number_of_canonical_orbitals> (1)
349

>  <i_j_Geometry_convergence_category> (1)
0

>  <r_j_Gas_Phase_Energy> (1)
-389.863850305263

>  <r_j_Final_Energy> (1)
-389.863850305263

>  <r_j_HOMO> (1)
-0.257313224739582

>  <r_j_LUMO> (1)
0.0213220548847291

>  <r_j_Polarizability> (1)
99.3229503326026

>  <r_j_QM_Dipole_(debye)> (1)
1.4440480136346

>  <r_j_QM_Dipole_X_(debye)> (1)
0.75223553319874

>  <r_j_QM_Dipole_Y_(debye)> (1)
-0.947703624098378

>  <r_j_QM_Dipole_Z_(debye)> (1)
0.788209495721825

>  <r_j_Lowest_Frequency_(cm-1)> (1)
85.285690372327

>  <r_j_Highest_Frequency_(cm-1)> (1)
3059.93514096215

>  <r_j_2nd_Lowest_Frequency_(cm-1)> (1)
111.661839735192

>  <i_j_Num_Negative_Frequencies> (1)
0

>  <r_j_Zero_Point_Energy_(kcal/mol)> (1)
143.992637492666

>  <r_j_Entropy_(cal/mol/K)_298.15K_1.00E+00atm> (1)
95.8605790563922

>  <r_j_Enthalpy_(kcal/mol)_298.15K_1.00E+00atm> (1)
6.69848297918288

>  <r_j_Free_Energy_(kcal/mol)_298.15K_1.00E+00atm> (1)
-21.8823486664805

>  <r_j_Internal_Energy_(kcal/mol)_298.15K_1.00E+00atm> (1)
6.1059973903556

>  <r_j_Heat_Capacity_(cal/mol/K)_298.15K_1.00E+00atm> (1)
36.5832096203191

>  <r_j_ln(Q)_298.15K_1.00E+00atm> (1)
36.9331323480676

>  <r_j_Total_Internal_Energy_(au)_298.15K_1.00E+00atm> (1)
-389.624652903377

>  <r_j_Total_Enthalpy_(au)_298.15K_1.00E+00atm> (1)
-389.623708717485

>  <r_j_Total_Free_Energy_(au)_298.15K_1.00E+00atm> (1)
-389.669255172179

>  <r_lp_tautomer_probability> (1)
1

>  <r_epik_Ionization_Penalty> (1)
  0.0000

>  <r_epik_Ionization_Penalty_Charging> (1)
  0.0000

>  <r_epik_Ionization_Penalty_Neutral> (1)
  0.0000

>  <r_epik_State_Penalty> (1)
  0.0000

>  <r_epik_Charging_Adjusted_Penalty> (1)
0

>  <i_epik_Tot_Q> (1)
0

>  <i_epik_Tot_abs_Q> (1)
0

>  <s_lp_Force_Field> (1)
S-OPLS

>  <r_lp_Energy> (1)
-0.114429

>  <b_lp_Chiralities_Consistent> (1)
1

$$$$
