13908486_Methyl tetratriacontanoate
                    3D
 Schrodinger Suite 2021-3.
107106  0  0  1  0            999 V2000
  -15.1252    2.5106    7.6095 C   0  0  0  0  0  0
  -14.8681    2.5656    6.1007 C   0  0  0  0  0  0
  -13.5985    3.3435    5.7331 C   0  0  0  0  0  0
  -13.3417    3.4038    4.2233 C   0  0  0  0  0  0
  -12.0758    4.1806    3.8421 C   0  0  0  0  0  0
  -11.8414    4.2274    2.3263 C   0  0  0  0  0  0
  -10.6290    5.0620    1.8870 C   0  0  0  0  0  0
   -9.2726    4.5174    2.3562 C   0  0  0  0  0  0
   -8.0853    5.2813    1.7583 C   0  0  0  0  0  0
   -6.7182    4.7519    2.2082 C   0  0  0  0  0  0
   -5.5494    5.4673    1.5177 C   0  0  0  0  0  0
   -4.1538    5.0163    1.9749 C   0  0  0  0  0  0
   -3.8632    3.5261    1.7455 C   0  0  0  0  0  0
   -2.3859    3.1618    1.9349 C   0  0  0  0  0  0
   -2.1103    1.6578    1.8178 C   0  0  0  0  0  0
   -0.6172    1.3104    1.8074 C   0  0  0  0  0  0
   -0.3394   -0.1976    1.7866 C   0  0  0  0  0  0
    1.1397   -0.5384    1.5712 C   0  0  0  0  0  0
    1.4430   -2.0400    1.6415 C   0  0  0  0  0  0
    2.8778   -2.3845    1.2257 C   0  0  0  0  0  0
    3.2296   -3.8687    1.3842 C   0  0  0  0  0  0
    4.5942   -4.2287    0.7851 C   0  0  0  0  0  0
    5.0179   -5.6814    1.0327 C   0  0  0  0  0  0
    6.2957   -6.0695    0.2793 C   0  0  0  0  0  0
    6.8144   -7.4716    0.6194 C   0  0  0  0  0  0
    8.0092   -7.8900   -0.2471 C   0  0  0  0  0  0
    8.6066   -9.2628    0.1047 C   0  0  0  0  0  0
    9.1869   -9.3833    1.5252 C   0  0  0  0  0  0
   10.2724   -8.3481    1.8459 C   0  0  0  0  0  0
   10.9534   -8.5759    3.2003 C   0  0  0  0  0  0
   12.0098   -7.5097    3.5214 C   0  0  0  0  0  0
   12.6863   -7.6686    4.8898 C   0  0  0  0  0  0
   13.5450   -8.9304    5.0042 C   0  0  0  0  0  0
   14.2747   -9.0215    6.3280 C   0  0  0  0  0  0
   14.1863   -8.2311    7.2427 O   0  0  0  0  0  0
   15.0587  -10.1249    6.3714 O   0  0  0  0  0  0
   15.7936  -10.3033    7.5944 C   0  0  0  0  0  0
  -16.0362    1.9495    7.8430 H   0  0  0  0  0  0
  -15.2376    3.5179    8.0271 H   0  0  0  0  0  0
  -14.2925    2.0279    8.1341 H   0  0  0  0  0  0
  -14.7932    1.5443    5.7027 H   0  0  0  0  0  0
  -15.7303    3.0240    5.5971 H   0  0  0  0  0  0
  -13.6705    4.3655    6.1324 H   0  0  0  0  0  0
  -12.7335    2.8841    6.2331 H   0  0  0  0  0  0
  -13.2710    2.3807    3.8267 H   0  0  0  0  0  0
  -14.2101    3.8600    3.7263 H   0  0  0  0  0  0
  -12.1458    5.2072    4.2303 H   0  0  0  0  0  0
  -11.2109    3.7249    4.3419 H   0  0  0  0  0  0
  -11.7289    3.2012    1.9475 H   0  0  0  0  0  0
  -12.7424    4.6302    1.8436 H   0  0  0  0  0  0
  -10.6226    5.1216    0.7900 H   0  0  0  0  0  0
  -10.7481    6.0949    2.2448 H   0  0  0  0  0  0
   -9.2110    4.5520    3.4519 H   0  0  0  0  0  0
   -9.1949    3.4554    2.0807 H   0  0  0  0  0  0
   -8.1453    5.2343    0.6613 H   0  0  0  0  0  0
   -8.1673    6.3466    2.0182 H   0  0  0  0  0  0
   -6.6219    4.8575    3.2986 H   0  0  0  0  0  0
   -6.6677    3.6748    2.0015 H   0  0  0  0  0  0
   -5.6344    5.3175    0.4315 H   0  0  0  0  0  0
   -5.6468    6.5492    1.6817 H   0  0  0  0  0  0
   -3.4013    5.6123    1.4405 H   0  0  0  0  0  0
   -4.0220    5.2492    3.0412 H   0  0  0  0  0  0
   -4.4762    2.9181    2.4238 H   0  0  0  0  0  0
   -4.1722    3.2472    0.7272 H   0  0  0  0  0  0
   -1.7857    3.7029    1.1892 H   0  0  0  0  0  0
   -2.0402    3.5189    2.9156 H   0  0  0  0  0  0
   -2.6071    1.1321    2.6458 H   0  0  0  0  0  0
   -2.5721    1.2734    0.8969 H   0  0  0  0  0  0
   -0.1488    1.7792    0.9299 H   0  0  0  0  0  0
   -0.1274    1.7575    2.6843 H   0  0  0  0  0  0
   -0.6904   -0.6454    2.7273 H   0  0  0  0  0  0
   -0.9335   -0.6671    0.9892 H   0  0  0  0  0  0
    1.4548   -0.1492    0.5923 H   0  0  0  0  0  0
    1.7523   -0.0100    2.3157 H   0  0  0  0  0  0
    1.2546   -2.4025    2.6621 H   0  0  0  0  0  0
    0.7420   -2.5854    0.9933 H   0  0  0  0  0  0
    3.0250   -2.0861    0.1776 H   0  0  0  0  0  0
    3.5859   -1.7811    1.8117 H   0  0  0  0  0  0
    3.2100   -4.1357    2.4505 H   0  0  0  0  0  0
    2.4537   -4.4828    0.9048 H   0  0  0  0  0  0
    4.5695   -4.0360   -0.2972 H   0  0  0  0  0  0
    5.3627   -3.5557    1.1920 H   0  0  0  0  0  0
    5.1617   -5.8387    2.1113 H   0  0  0  0  0  0
    4.2042   -6.3581    0.7346 H   0  0  0  0  0  0
    6.1086   -5.9995   -0.8019 H   0  0  0  0  0  0
    7.0848   -5.3347    0.4954 H   0  0  0  0  0  0
    7.0906   -7.4974    1.6819 H   0  0  0  0  0  0
    6.0051   -8.2062    0.4988 H   0  0  0  0  0  0
    7.6943   -7.9027   -1.2993 H   0  0  0  0  0  0
    8.7896   -7.1203   -0.1821 H   0  0  0  0  0  0
    7.8366  -10.0343   -0.0314 H   0  0  0  0  0  0
    9.4007   -9.4939   -0.6183 H   0  0  0  0  0  0
    8.3829   -9.3036    2.2689 H   0  0  0  0  0  0
    9.6053  -10.3918    1.6460 H   0  0  0  0  0  0
   11.0328   -8.3600    1.0513 H   0  0  0  0  0  0
    9.8383   -7.3396    1.8331 H   0  0  0  0  0  0
   10.1943   -8.5833    3.9959 H   0  0  0  0  0  0
   11.4093   -9.5751    3.2060 H   0  0  0  0  0  0
   12.7762   -7.5101    2.7325 H   0  0  0  0  0  0
   11.5349   -6.5206    3.4792 H   0  0  0  0  0  0
   13.3194   -6.7979    5.0926 H   0  0  0  0  0  0
   11.9302   -7.6767    5.6840 H   0  0  0  0  0  0
   12.9478   -9.8435    4.8965 H   0  0  0  0  0  0
   14.2944   -8.9749    4.2034 H   0  0  0  0  0  0
   16.3645  -11.2230    7.4653 H   0  0  0  0  0  0
   15.1126  -10.3901    8.4455 H   0  0  0  0  0  0
   16.4632   -9.4569    7.7696 H   0  0  0  0  0  0
  1  2  1  0  0  0
  1 38  1  0  0  0
  1 39  1  0  0  0
  1 40  1  0  0  0
  2  3  1  0  0  0
  2 41  1  0  0  0
  2 42  1  0  0  0
  3  4  1  0  0  0
  3 43  1  0  0  0
  3 44  1  0  0  0
  4  5  1  0  0  0
  4 45  1  0  0  0
  4 46  1  0  0  0
  5  6  1  0  0  0
  5 47  1  0  0  0
  5 48  1  0  0  0
  6  7  1  0  0  0
  6 49  1  0  0  0
  6 50  1  0  0  0
  7  8  1  0  0  0
  7 51  1  0  0  0
  7 52  1  0  0  0
  8  9  1  0  0  0
  8 53  1  0  0  0
  8 54  1  0  0  0
  9 10  1  0  0  0
  9 55  1  0  0  0
  9 56  1  0  0  0
 10 11  1  0  0  0
 10 57  1  0  0  0
 10 58  1  0  0  0
 11 12  1  0  0  0
 11 59  1  0  0  0
 11 60  1  0  0  0
 12 13  1  0  0  0
 12 61  1  0  0  0
 12 62  1  0  0  0
 13 14  1  0  0  0
 13 63  1  0  0  0
 13 64  1  0  0  0
 14 15  1  0  0  0
 14 65  1  0  0  0
 14 66  1  0  0  0
 15 16  1  0  0  0
 15 67  1  0  0  0
 15 68  1  0  0  0
 16 17  1  0  0  0
 16 69  1  0  0  0
 16 70  1  0  0  0
 17 18  1  0  0  0
 17 71  1  0  0  0
 17 72  1  0  0  0
 18 19  1  0  0  0
 18 73  1  0  0  0
 18 74  1  0  0  0
 19 20  1  0  0  0
 19 75  1  0  0  0
 19 76  1  0  0  0
 20 21  1  0  0  0
 20 77  1  0  0  0
 20 78  1  0  0  0
 21 22  1  0  0  0
 21 79  1  0  0  0
 21 80  1  0  0  0
 22 23  1  0  0  0
 22 81  1  0  0  0
 22 82  1  0  0  0
 23 24  1  0  0  0
 23 83  1  0  0  0
 23 84  1  0  0  0
 24 25  1  0  0  0
 24 85  1  0  0  0
 24 86  1  0  0  0
 25 26  1  0  0  0
 25 87  1  0  0  0
 25 88  1  0  0  0
 26 27  1  0  0  0
 26 89  1  0  0  0
 26 90  1  0  0  0
 27 28  1  0  0  0
 27 91  1  0  0  0
 27 92  1  0  0  0
 28 29  1  0  0  0
 28 93  1  0  0  0
 28 94  1  0  0  0
 29 30  1  0  0  0
 29 95  1  0  0  0
 29 96  1  0  0  0
 30 31  1  0  0  0
 30 97  1  0  0  0
 30 98  1  0  0  0
 31 32  1  0  0  0
 31 99  1  0  0  0
 31100  1  0  0  0
 32 33  1  0  0  0
 32101  1  0  0  0
 32102  1  0  0  0
 33 34  1  0  0  0
 33103  1  0  0  0
 33104  1  0  0  0
 34 35  2  0  0  0
 34 36  1  0  0  0
 36 37  1  0  0  0
 37105  1  0  0  0
 37106  1  0  0  0
 37107  1  0  0  0
M  END
>  <s_lp_Force_Field> (1)
S-OPLS

>  <r_lp_Energy> (1)
18.5824

>  <b_lp_Chiralities_Consistent> (1)
1

>  <r_epik_Ionization_Penalty> (1)
  0.0000

>  <r_epik_Ionization_Penalty_Charging> (1)
  0.0000

>  <r_epik_Ionization_Penalty_Neutral> (1)
  0.0000

>  <r_epik_State_Penalty> (1)
  0.0000

>  <r_epik_Charging_Adjusted_Penalty> (1)
0

>  <i_epik_Tot_Q> (1)
0

>  <i_epik_Tot_abs_Q> (1)
0

>  <i_m_Spin_multiplicity> (1)
1

>  <s_j_Task> (1)
Single Point

>  <s_j_QM_Method> (1)
DFT(b3lyp-d3)

>  <s_j_QM_Basis> (1)
6-31g**

>  <i_j_Number_of_canonical_orbitals> (1)
905

>  <i_j_Geometry_convergence_category> (1)
4

>  <r_j_Gas_Phase_Energy> (1)
-1526.61450698185

>  <r_j_Final_Energy> (1)
-1526.61450698185

>  <r_j_HOMO> (1)
-0.268184834158616

>  <r_j_LUMO> (1)
0.0168537778949076

>  <r_j_Polarizability> (1)
393.332085006327

>  <r_j_QM_Dipole_(debye)> (1)
1.58554185911985

>  <r_j_QM_Dipole_X_(debye)> (1)
0.345502319178339

>  <r_j_QM_Dipole_Y_(debye)> (1)
-1.22757108805693

>  <r_j_QM_Dipole_Z_(debye)> (1)
-0.942146675539614

>  <r_j_Lowest_Frequency_(cm-1)> (1)
-6.67364297975538

>  <r_j_Highest_Frequency_(cm-1)> (1)
3166.40209332435

>  <r_j_2nd_Lowest_Frequency_(cm-1)> (1)
6.92239555593481

>  <i_j_Num_Negative_Frequencies> (1)
1

>  <r_j_Zero_Point_Energy_(kcal/mol)> (1)
632.66888016118

>  <r_j_Entropy_(cal/mol/K)_298.15K_1.00E+00atm> (1)
256.860859212443

>  <r_j_Enthalpy_(kcal/mol)_298.15K_1.00E+00atm> (1)
28.932797173631

>  <r_j_Free_Energy_(kcal/mol)_298.15K_1.00E+00atm> (1)
-47.6502680005589

>  <r_j_Internal_Energy_(kcal/mol)_298.15K_1.00E+00atm> (1)
28.3403115848037

>  <r_j_Heat_Capacity_(cal/mol/K)_298.15K_1.00E+00atm> (1)
170.098053113

>  <r_j_ln(Q)_298.15K_1.00E+00atm> (1)
80.424349383543

>  <r_j_Total_Internal_Energy_(au)_298.15K_1.00E+00atm> (1)
-1525.56112177677

>  <r_j_Total_Enthalpy_(au)_298.15K_1.00E+00atm> (1)
-1525.56017759087

>  <r_j_Total_Free_Energy_(au)_298.15K_1.00E+00atm> (1)
-1525.68222047442

>  <r_lp_tautomer_probability> (1)
1

>  <s_epik_Chemistry_Notes> (1)
This compound has an ester and may undergo hydrolysis at high or low pH.

$$$$
