13930_Heptachlor epoxide
                    3D
 Schrodinger Suite 2021-3.
 23 26  0  0  1  0            999 V2000
   -0.3972    1.1577    0.7597 C   0  0  0  0  0  0
    1.0817    0.7069    0.4546 C   0  0  0  0  0  0
    1.5769    1.6042   -0.7162 C   0  0  0  0  0  0
    0.3433    2.3245   -1.2507 C   0  0  0  0  0  0
   -0.8027    2.0878   -0.3652 C   0  0  0  0  0  0
   -0.0868    3.3293   -0.3163 O   0  0  0  0  0  0
    2.5059    0.7935   -2.0389 Cl  0  0  0  0  0  0
    0.9241   -0.8497    0.2842 C   0  0  0  0  0  0
    0.0364   -1.1703   -0.9298 C   0  0  0  0  0  0
   -1.2044   -0.7484   -0.6362 C   0  0  0  0  0  0
   -1.1838   -0.1823    0.7871 C   0  0  0  0  0  0
   -0.1320   -1.1511    1.4248 C   0  0  0  0  0  0
   -0.6516   -2.8632    1.5015 Cl  0  0  0  0  0  0
    0.3921   -0.6672    3.0765 Cl  0  0  0  0  0  0
   -2.7595   -0.0627    1.6008 Cl  0  0  0  0  0  0
   -2.5929   -0.7737   -1.6441 Cl  0  0  0  0  0  0
    0.5364   -1.9910   -2.3473 Cl  0  0  0  0  0  0
    2.4467   -1.7518    0.4144 Cl  0  0  0  0  0  0
   -0.4800    1.6546    1.7273 H   0  0  0  0  0  0
    1.7276    0.8561    1.3185 H   0  0  0  0  0  0
    2.2623    2.3514   -0.3149 H   0  0  0  0  0  0
    0.2698    2.5705   -2.3065 H   0  0  0  0  0  0
   -1.8396    2.1378   -0.6902 H   0  0  0  0  0  0
  1  5  1  0  0  0
  1 11  1  0  0  0
  1  2  1  0  0  0
  1 19  1  0  0  0
  2  3  1  0  0  0
  2  8  1  0  0  0
  2 20  1  0  0  0
  3  4  1  0  0  0
  3  7  1  0  0  0
  3 21  1  0  0  0
  4  6  1  0  0  0
  4  5  1  0  0  0
  4 22  1  0  0  0
  5  6  1  0  0  0
  5 23  1  0  0  0
  8 12  1  0  0  0
  8  9  1  0  0  0
  8 18  1  0  0  0
  9 10  2  0  0  0
  9 17  1  0  0  0
 10 11  1  0  0  0
 10 16  1  0  0  0
 11 12  1  0  0  0
 11 15  1  0  0  0
 12 13  1  0  0  0
 12 14  1  0  0  0
M  END
>  <i_m_Spin_multiplicity> (1)
1

>  <s_j_Task> (1)
Single Point

>  <s_j_QM_Method> (1)
DFT(b3lyp-d3)

>  <s_j_QM_Basis> (1)
cc-pvtz(-f)

>  <i_j_Number_of_canonical_orbitals> (1)
481

>  <i_j_Geometry_convergence_category> (1)
0

>  <r_j_Gas_Phase_Energy> (1)
-3680.99187576843

>  <r_j_Final_Energy> (1)
-3680.99187576843

>  <r_j_HOMO> (1)
-0.272483276023983

>  <r_j_LUMO> (1)
-0.0653797999628433

>  <r_j_Polarizability> (1)
183.53887688281

>  <r_j_QM_Dipole_(debye)> (1)
1.37192759561267

>  <r_j_QM_Dipole_X_(debye)> (1)
-0.345818186938913

>  <r_j_QM_Dipole_Y_(debye)> (1)
1.29623212458162

>  <r_j_QM_Dipole_Z_(debye)> (1)
-0.287014613545129

>  <r_j_Lowest_Frequency_(cm-1)> (1)
56.1766408020122

>  <r_j_Highest_Frequency_(cm-1)> (1)
3127.77599272815

>  <r_j_2nd_Lowest_Frequency_(cm-1)> (1)
84.5713648703061

>  <i_j_Num_Negative_Frequencies> (1)
0

>  <r_j_Zero_Point_Energy_(kcal/mol)> (1)
81.6421095293198

>  <r_j_Entropy_(cal/mol/K)_298.15K_1.00E+00atm> (1)
128.685342938109

>  <r_j_Enthalpy_(kcal/mol)_298.15K_1.00E+00atm> (1)
10.8377486113861

>  <r_j_Free_Energy_(kcal/mol)_298.15K_1.00E+00atm> (1)
-27.5297863856109

>  <r_j_Internal_Energy_(kcal/mol)_298.15K_1.00E+00atm> (1)
10.2452630225588

>  <r_j_Heat_Capacity_(cal/mol/K)_298.15K_1.00E+00atm> (1)
60.730652877873

>  <r_j_ln(Q)_298.15K_1.00E+00atm> (1)
46.4649046402994

>  <r_j_Total_Internal_Energy_(au)_298.15K_1.00E+00atm> (1)
-3680.84544391848

>  <r_j_Total_Enthalpy_(au)_298.15K_1.00E+00atm> (1)
-3680.84449973259

>  <r_j_Total_Free_Energy_(au)_298.15K_1.00E+00atm> (1)
-3680.90564229191

>  <r_lp_tautomer_probability> (1)
1

>  <r_epik_Ionization_Penalty> (1)
  0.0000

>  <r_epik_Ionization_Penalty_Charging> (1)
  0.0000

>  <r_epik_Ionization_Penalty_Neutral> (1)
  0.0000

>  <r_epik_State_Penalty> (1)
  0.0000

>  <r_epik_Charging_Adjusted_Penalty> (1)
0

>  <i_epik_Tot_Q> (1)
0

>  <i_epik_Tot_abs_Q> (1)
0

>  <s_lp_Force_Field> (1)
S-OPLS

>  <r_lp_Energy> (1)
48.061346

>  <b_lp_Chiralities_Consistent> (1)
1

$$$$
