139988_2,5-dimethyloctane
                    3D
 Schrodinger Suite 2021-3.
 32 31  0  0  1  0            999 V2000
   -2.8270   -1.5097   -2.4135 C   0  0  0  0  0  0
   -2.2371   -0.6967   -1.2567 C   0  0  0  0  0  0
   -0.7042   -0.6329   -1.3035 C   0  0  0  0  0  0
   -0.0395    0.0447   -0.0891 C   0  0  0  0  0  0
   -0.5073    1.4981    0.0844 C   0  0  0  0  0  0
    1.4996   -0.0013   -0.1773 C   0  0  0  0  0  0
    2.1099   -1.4099   -0.2043 C   0  0  0  0  0  0
    3.6338   -1.4514    0.0190 C   0  0  0  0  0  0
    4.4011   -0.6759   -1.0621 C   0  0  0  0  0  0
    4.1266   -2.9035    0.0908 C   0  0  0  0  0  0
   -3.9208   -1.5389   -2.3688 H   0  0  0  0  0  0
   -2.4639   -2.5439   -2.3956 H   0  0  0  0  0  0
   -2.5443   -1.0789   -3.3812 H   0  0  0  0  0  0
   -2.6575    0.3157   -1.2787 H   0  0  0  0  0  0
   -2.5506   -1.1373   -0.2999 H   0  0  0  0  0  0
   -0.3236   -1.6580   -1.3954 H   0  0  0  0  0  0
   -0.3899   -0.1092   -2.2194 H   0  0  0  0  0  0
   -0.3381   -0.5179    0.8099 H   0  0  0  0  0  0
   -0.2790    2.0871   -0.8128 H   0  0  0  0  0  0
   -0.0020    1.9746    0.9316 H   0  0  0  0  0  0
   -1.5843    1.5665    0.2626 H   0  0  0  0  0  0
    1.8149    0.5623   -1.0661 H   0  0  0  0  0  0
    1.9110    0.5412    0.6861 H   0  0  0  0  0  0
    1.6259   -2.0204    0.5716 H   0  0  0  0  0  0
    1.8872   -1.9017   -1.1610 H   0  0  0  0  0  0
    3.8413   -0.9745    0.9892 H   0  0  0  0  0  0
    4.1877   -1.0876   -2.0567 H   0  0  0  0  0  0
    5.4825   -0.7426   -0.9001 H   0  0  0  0  0  0
    4.1329    0.3848   -1.0751 H   0  0  0  0  0  0
    3.9447   -3.4226   -0.8587 H   0  0  0  0  0  0
    3.6110   -3.4627    0.8794 H   0  0  0  0  0  0
    5.2023   -2.9501    0.2930 H   0  0  0  0  0  0
  1  2  1  0  0  0
  1 11  1  0  0  0
  1 12  1  0  0  0
  1 13  1  0  0  0
  2  3  1  0  0  0
  2 14  1  0  0  0
  2 15  1  0  0  0
  3  4  1  0  0  0
  3 16  1  0  0  0
  3 17  1  0  0  0
  4  5  1  0  0  0
  4  6  1  0  0  0
  4 18  1  0  0  0
  5 19  1  0  0  0
  5 20  1  0  0  0
  5 21  1  0  0  0
  6  7  1  0  0  0
  6 22  1  0  0  0
  6 23  1  0  0  0
  7  8  1  0  0  0
  7 24  1  0  0  0
  7 25  1  0  0  0
  8  9  1  0  0  0
  8 10  1  0  0  0
  8 26  1  0  0  0
  9 27  1  0  0  0
  9 28  1  0  0  0
  9 29  1  0  0  0
 10 30  1  0  0  0
 10 31  1  0  0  0
 10 32  1  0  0  0
M  END
>  <i_m_Spin_multiplicity> (1)
1

>  <s_j_Task> (1)
Single Point

>  <s_j_QM_Method> (1)
DFT(b3lyp-d3)

>  <s_j_QM_Basis> (1)
cc-pvtz(-f)

>  <i_j_Number_of_canonical_orbitals> (1)
425

>  <i_j_Geometry_convergence_category> (1)
1

>  <r_j_Gas_Phase_Energy> (1)
-394.500211353741

>  <r_j_Final_Energy> (1)
-394.500211353741

>  <r_j_HOMO> (1)
-0.301109723326593

>  <r_j_LUMO> (1)
0.0256791802582765

>  <r_j_Polarizability> (1)
123.684956646732

>  <r_j_QM_Dipole_(debye)> (1)
0.163508422463474

>  <r_j_QM_Dipole_X_(debye)> (1)
-0.0287858645698482

>  <r_j_QM_Dipole_Y_(debye)> (1)
0.0220691872488837

>  <r_j_QM_Dipole_Z_(debye)> (1)
0.159434404040138

>  <r_j_Lowest_Frequency_(cm-1)> (1)
73.8302679988614

>  <r_j_Highest_Frequency_(cm-1)> (1)
3056.16564726515

>  <r_j_2nd_Lowest_Frequency_(cm-1)> (1)
87.5424702486513

>  <i_j_Num_Negative_Frequencies> (1)
0

>  <r_j_Zero_Point_Energy_(kcal/mol)> (1)
189.472801237474

>  <r_j_Entropy_(cal/mol/K)_298.15K_1.00E+00atm> (1)
107.848183789781

>  <r_j_Enthalpy_(kcal/mol)_298.15K_1.00E+00atm> (1)
8.5221611453139

>  <r_j_Free_Energy_(kcal/mol)_298.15K_1.00E+00atm> (1)
-23.6327748516092

>  <r_j_Internal_Energy_(kcal/mol)_298.15K_1.00E+00atm> (1)
7.92967555648663

>  <r_j_Heat_Capacity_(cal/mol/K)_298.15K_1.00E+00atm> (1)
48.6360208377812

>  <r_j_ln(Q)_298.15K_1.00E+00atm> (1)
39.8875100040599

>  <r_j_Total_Internal_Energy_(au)_298.15K_1.00E+00atm> (1)
-394.185630480891

>  <r_j_Total_Enthalpy_(au)_298.15K_1.00E+00atm> (1)
-394.184686294999

>  <r_j_Total_Free_Energy_(au)_298.15K_1.00E+00atm> (1)
-394.235928447563

>  <r_lp_tautomer_probability> (1)
1

>  <r_epik_Ionization_Penalty> (1)
  0.0000

>  <r_epik_Ionization_Penalty_Charging> (1)
  0.0000

>  <r_epik_Ionization_Penalty_Neutral> (1)
  0.0000

>  <r_epik_State_Penalty> (1)
  0.0000

>  <r_epik_Charging_Adjusted_Penalty> (1)
0

>  <i_epik_Tot_Q> (1)
0

>  <i_epik_Tot_abs_Q> (1)
0

>  <s_lp_Force_Field> (1)
S-OPLS

>  <r_lp_Energy> (1)
5.50973

>  <b_lp_Chiralities_Consistent> (1)
1

$$$$
