139989_3,5-dimethyloctane
                    3D
 Schrodinger Suite 2021-3.
 32 31  0  0  1  0            999 V2000
   -2.7677   -1.5420   -2.3960 C   0  0  0  0  0  0
   -2.2093   -0.6622   -1.2729 C   0  0  0  0  0  0
   -0.6750   -0.6556   -1.2375 C   0  0  0  0  0  0
   -0.0540    0.0852   -0.0382 C   0  0  0  0  0  0
   -0.4658    1.5656   -0.0016 C   0  0  0  0  0  0
    1.4861   -0.0168   -0.0310 C   0  0  0  0  0  0
    2.1013   -1.4317   -0.0325 C   0  0  0  0  0  0
    1.5380   -2.3044    1.0990 C   0  0  0  0  0  0
    3.6401   -1.3748    0.0655 C   0  0  0  0  0  0
    4.3380   -0.6492   -1.0900 C   0  0  0  0  0  0
   -3.8626   -1.5304   -2.4105 H   0  0  0  0  0  0
   -2.4460   -2.5834   -2.2790 H   0  0  0  0  0  0
   -2.4175   -1.1980   -3.3762 H   0  0  0  0  0  0
   -2.5884    0.3594   -1.3942 H   0  0  0  0  0  0
   -2.5898   -1.0166   -0.3046 H   0  0  0  0  0  0
   -0.3315   -1.6979   -1.2344 H   0  0  0  0  0  0
   -0.2897   -0.2138   -2.1691 H   0  0  0  0  0  0
   -0.4361   -0.3860    0.8789 H   0  0  0  0  0  0
   -0.1691    2.0739   -0.9278 H   0  0  0  0  0  0
    0.0181    2.0864    0.8319 H   0  0  0  0  0  0
   -1.5463    1.6894    0.1157 H   0  0  0  0  0  0
    1.8626    0.5391   -0.9001 H   0  0  0  0  0  0
    1.8617    0.5166    0.8552 H   0  0  0  0  0  0
    1.8578   -1.9162   -0.9894 H   0  0  0  0  0  0
    1.7050   -1.8303    2.0742 H   0  0  0  0  0  0
    2.0256   -3.2851    1.1183 H   0  0  0  0  0  0
    0.4625   -2.4734    0.9923 H   0  0  0  0  0  0
    3.9179   -0.9020    1.0187 H   0  0  0  0  0  0
    4.0198   -2.4039    0.1173 H   0  0  0  0  0  0
    5.4261   -0.7406   -1.0089 H   0  0  0  0  0  0
    4.1007    0.4189   -1.1086 H   0  0  0  0  0  0
    4.0398   -1.0723   -2.0565 H   0  0  0  0  0  0
  1  2  1  0  0  0
  1 11  1  0  0  0
  1 12  1  0  0  0
  1 13  1  0  0  0
  2  3  1  0  0  0
  2 14  1  0  0  0
  2 15  1  0  0  0
  3  4  1  0  0  0
  3 16  1  0  0  0
  3 17  1  0  0  0
  4  5  1  0  0  0
  4  6  1  0  0  0
  4 18  1  0  0  0
  5 19  1  0  0  0
  5 20  1  0  0  0
  5 21  1  0  0  0
  6  7  1  0  0  0
  6 22  1  0  0  0
  6 23  1  0  0  0
  7  8  1  0  0  0
  7  9  1  0  0  0
  7 24  1  0  0  0
  8 25  1  0  0  0
  8 26  1  0  0  0
  8 27  1  0  0  0
  9 10  1  0  0  0
  9 28  1  0  0  0
  9 29  1  0  0  0
 10 30  1  0  0  0
 10 31  1  0  0  0
 10 32  1  0  0  0
M  END
>  <i_m_Spin_multiplicity> (1)
1

>  <s_j_Task> (1)
Single Point

>  <s_j_QM_Method> (1)
DFT(b3lyp-d3)

>  <s_j_QM_Basis> (1)
cc-pvtz(-f)

>  <i_j_Number_of_canonical_orbitals> (1)
425

>  <i_j_Geometry_convergence_category> (1)
3

>  <r_j_Gas_Phase_Energy> (1)
-394.499203977067

>  <r_j_Final_Energy> (1)
-394.499203977067

>  <r_j_HOMO> (1)
-0.300815664962414

>  <r_j_LUMO> (1)
0.0231657055349498

>  <r_j_Polarizability> (1)
122.808619806288

>  <r_j_QM_Dipole_(debye)> (1)
0.0705407695884492

>  <r_j_QM_Dipole_X_(debye)> (1)
-0.0204832104701067

>  <r_j_QM_Dipole_Y_(debye)> (1)
-0.0597023789415457

>  <r_j_QM_Dipole_Z_(debye)> (1)
0.0314970508411195

>  <r_j_Lowest_Frequency_(cm-1)> (1)
63.9871794603103

>  <r_j_Highest_Frequency_(cm-1)> (1)
3055.36964584151

>  <r_j_2nd_Lowest_Frequency_(cm-1)> (1)
101.236847305944

>  <i_j_Num_Negative_Frequencies> (1)
0

>  <r_j_Zero_Point_Energy_(kcal/mol)> (1)
189.604201840923

>  <r_j_Entropy_(cal/mol/K)_298.15K_1.00E+00atm> (1)
107.26133322612

>  <r_j_Enthalpy_(kcal/mol)_298.15K_1.00E+00atm> (1)
8.50139200374551

>  <r_j_Free_Energy_(kcal/mol)_298.15K_1.00E+00atm> (1)
-23.4785744976221

>  <r_j_Internal_Energy_(kcal/mol)_298.15K_1.00E+00atm> (1)
7.90890641491823

>  <r_j_Heat_Capacity_(cal/mol/K)_298.15K_1.00E+00atm> (1)
48.6510431227024

>  <r_j_ln(Q)_298.15K_1.00E+00atm> (1)
39.6272499118401

>  <r_j_Total_Internal_Energy_(au)_298.15K_1.00E+00atm> (1)
-394.18444680176

>  <r_j_Total_Enthalpy_(au)_298.15K_1.00E+00atm> (1)
-394.183502615867

>  <r_j_Total_Free_Energy_(au)_298.15K_1.00E+00atm> (1)
-394.23446593679

>  <r_lp_tautomer_probability> (1)
1

>  <r_epik_Ionization_Penalty> (1)
  0.0000

>  <r_epik_Ionization_Penalty_Charging> (1)
  0.0000

>  <r_epik_Ionization_Penalty_Neutral> (1)
  0.0000

>  <r_epik_State_Penalty> (1)
  0.0000

>  <r_epik_Charging_Adjusted_Penalty> (1)
0

>  <i_epik_Tot_Q> (1)
0

>  <i_epik_Tot_abs_Q> (1)
0

>  <s_lp_Force_Field> (1)
S-OPLS

>  <r_lp_Energy> (1)
6.249448

>  <b_lp_Chiralities_Consistent> (1)
1

$$$$
