140671_Cis-1,1,3,4-tetramethylcyclopentane
                    3D
 Schrodinger Suite 2021-3.
 27 27  0  0  1  0            999 V2000
   -0.0130   -0.1373   -0.0155 C   0  0  0  0  0  0
    1.5086   -0.0070   -0.0083 C   0  0  0  0  0  0
    2.0790    0.7834   -1.1991 C   0  0  0  0  0  0
    3.5142    1.2400   -0.7799 C   0  0  0  0  0  0
    3.5539    0.9853    0.7620 C   0  0  0  0  0  0
    2.0986    0.7460    1.2010 C   0  0  0  0  0  0
    1.9595    0.0321    2.5439 C   0  0  0  0  0  0
    4.5870    0.4048   -1.4962 C   0  0  0  0  0  0
    3.7239    2.7294   -1.0953 C   0  0  0  0  0  0
   -0.4855    0.8521    0.0181 H   0  0  0  0  0  0
   -0.3743   -0.7105    0.8449 H   0  0  0  0  0  0
   -0.3644   -0.6431   -0.9213 H   0  0  0  0  0  0
    1.9492   -1.0171   -0.0126 H   0  0  0  0  0  0
    2.0814    0.2041   -2.1292 H   0  0  0  0  0  0
    1.4430    1.6610   -1.3769 H   0  0  0  0  0  0
    4.1402    0.0820    0.9781 H   0  0  0  0  0  0
    4.0311    1.8070    1.3076 H   0  0  0  0  0  0
    1.5851    1.7191    1.2640 H   0  0  0  0  0  0
    2.4356   -0.9555    2.5073 H   0  0  0  0  0  0
    0.9094   -0.1122    2.8189 H   0  0  0  0  0  0
    2.4371    0.6019    3.3483 H   0  0  0  0  0  0
    5.5887    0.6438   -1.1203 H   0  0  0  0  0  0
    4.5795    0.5917   -2.5764 H   0  0  0  0  0  0
    4.4188   -0.6668   -1.3395 H   0  0  0  0  0  0
    4.7348    3.0541   -0.8225 H   0  0  0  0  0  0
    3.0107    3.3514   -0.5426 H   0  0  0  0  0  0
    3.5832    2.9296   -2.1639 H   0  0  0  0  0  0
  1  2  1  0  0  0
  1 10  1  0  0  0
  1 11  1  0  0  0
  1 12  1  0  0  0
  2  6  1  0  0  0
  2  3  1  0  0  0
  2 13  1  0  0  0
  3  4  1  0  0  0
  3 14  1  0  0  0
  3 15  1  0  0  0
  4  5  1  0  0  0
  4  8  1  0  0  0
  4  9  1  0  0  0
  5  6  1  0  0  0
  5 16  1  0  0  0
  5 17  1  0  0  0
  6  7  1  0  0  0
  6 18  1  0  0  0
  7 19  1  0  0  0
  7 20  1  0  0  0
  7 21  1  0  0  0
  8 22  1  0  0  0
  8 23  1  0  0  0
  8 24  1  0  0  0
  9 25  1  0  0  0
  9 26  1  0  0  0
  9 27  1  0  0  0
M  END
>  <i_m_Spin_multiplicity> (1)
1

>  <s_j_Task> (1)
Single Point

>  <s_j_QM_Method> (1)
DFT(b3lyp-d3)

>  <s_j_QM_Basis> (1)
cc-pvtz(-f)

>  <i_j_Number_of_canonical_orbitals> (1)
365

>  <i_j_Geometry_convergence_category> (1)
0

>  <r_j_Gas_Phase_Energy> (1)
-353.958919102817

>  <r_j_Final_Energy> (1)
-353.958919102817

>  <r_j_HOMO> (1)
-0.296236668735698

>  <r_j_LUMO> (1)
0.0315818601515806

>  <r_j_Polarizability> (1)
105.557322498111

>  <r_j_QM_Dipole_(debye)> (1)
0.0681582694081914

>  <r_j_QM_Dipole_X_(debye)> (1)
-0.0494350191901232

>  <r_j_QM_Dipole_Y_(debye)> (1)
-0.0251659245051679

>  <r_j_QM_Dipole_Z_(debye)> (1)
0.0396030909171486

>  <r_j_Lowest_Frequency_(cm-1)> (1)
76.6407721207806

>  <r_j_Highest_Frequency_(cm-1)> (1)
3047.97859364546

>  <r_j_2nd_Lowest_Frequency_(cm-1)> (1)
139.427484382786

>  <i_j_Num_Negative_Frequencies> (1)
0

>  <r_j_Zero_Point_Energy_(kcal/mol)> (1)
158.026595648133

>  <r_j_Entropy_(cal/mol/K)_298.15K_1.00E+00atm> (1)
93.3032936720929

>  <r_j_Enthalpy_(kcal/mol)_298.15K_1.00E+00atm> (1)
6.75114890004996

>  <r_j_Free_Energy_(kcal/mol)_298.15K_1.00E+00atm> (1)
-21.0672281082845

>  <r_j_Internal_Energy_(kcal/mol)_298.15K_1.00E+00atm> (1)
6.15866331122268

>  <r_j_Heat_Capacity_(cal/mol/K)_298.15K_1.00E+00atm> (1)
40.168821593737

>  <r_j_ln(Q)_298.15K_1.00E+00atm> (1)
35.5573679859177

>  <r_j_Total_Internal_Energy_(au)_298.15K_1.00E+00atm> (1)
-353.697273236406

>  <r_j_Total_Enthalpy_(au)_298.15K_1.00E+00atm> (1)
-353.696329050514

>  <r_j_Total_Free_Energy_(au)_298.15K_1.00E+00atm> (1)
-353.740660456394

>  <r_lp_tautomer_probability> (1)
1

>  <r_epik_Ionization_Penalty> (1)
  0.0000

>  <r_epik_Ionization_Penalty_Charging> (1)
  0.0000

>  <r_epik_Ionization_Penalty_Neutral> (1)
  0.0000

>  <r_epik_State_Penalty> (1)
  0.0000

>  <r_epik_Charging_Adjusted_Penalty> (1)
0

>  <i_epik_Tot_Q> (1)
0

>  <i_epik_Tot_abs_Q> (1)
0

>  <s_lp_Force_Field> (1)
S-OPLS

>  <r_lp_Energy> (1)
3.32979

>  <b_lp_Chiralities_Consistent> (1)
1

$$$$
