14091_1-Methyl-2-n-propylbenzene
                    3D
 Schrodinger Suite 2021-3.
 24 24  0  0  1  0            999 V2000
   -0.5861    1.4704    0.0327 C   0  0  0  0  0  0
   -0.0350    0.0428    0.0134 C   0  0  0  0  0  0
    1.5065   -0.0008    0.0223 C   0  0  0  0  0  0
    2.0440   -1.4155   -0.0140 C   0  0  0  0  0  0
    2.2785   -2.0892    1.1903 C   0  0  0  0  0  0
    2.7190   -3.4116    1.2134 C   0  0  0  0  0  0
    2.9346   -4.0821    0.0116 C   0  0  0  0  0  0
    2.7064   -3.4215   -1.1951 C   0  0  0  0  0  0
    2.2614   -2.0949   -1.2313 C   0  0  0  0  0  0
    2.0395   -1.4131   -2.5631 C   0  0  0  0  0  0
   -1.6810    1.4777    0.0344 H   0  0  0  0  0  0
   -0.2494    2.0350   -0.8445 H   0  0  0  0  0  0
   -0.2468    2.0120    0.9232 H   0  0  0  0  0  0
   -0.4056   -0.5170    0.8811 H   0  0  0  0  0  0
   -0.4080   -0.4905   -0.8699 H   0  0  0  0  0  0
    1.8867    0.5824   -0.8247 H   0  0  0  0  0  0
    1.8666    0.5047    0.9271 H   0  0  0  0  0  0
    2.1110   -1.5623    2.1271 H   0  0  0  0  0  0
    2.8944   -3.9112    2.1619 H   0  0  0  0  0  0
    3.2791   -5.1123    0.0103 H   0  0  0  0  0  0
    2.8776   -3.9457   -2.1323 H   0  0  0  0  0  0
    2.1889   -2.1109   -3.3913 H   0  0  0  0  0  0
    2.7344   -0.5767   -2.7064 H   0  0  0  0  0  0
    1.0275   -1.0039   -2.6515 H   0  0  0  0  0  0
  1  2  1  0  0  0
  1 11  1  0  0  0
  1 12  1  0  0  0
  1 13  1  0  0  0
  2  3  1  0  0  0
  2 14  1  0  0  0
  2 15  1  0  0  0
  3  4  1  0  0  0
  3 16  1  0  0  0
  3 17  1  0  0  0
  4  9  1  0  0  0
  4  5  2  0  0  0
  5  6  1  0  0  0
  5 18  1  0  0  0
  6  7  2  0  0  0
  6 19  1  0  0  0
  7  8  1  0  0  0
  7 20  1  0  0  0
  8  9  2  0  0  0
  8 21  1  0  0  0
  9 10  1  0  0  0
 10 22  1  0  0  0
 10 23  1  0  0  0
 10 24  1  0  0  0
M  END
>  <i_m_Spin_multiplicity> (1)
1

>  <s_j_Task> (1)
Single Point

>  <s_j_QM_Method> (1)
DFT(b3lyp-d3)

>  <s_j_QM_Basis> (1)
cc-pvtz(-f)

>  <i_j_Number_of_canonical_orbitals> (1)
348

>  <i_j_Geometry_convergence_category> (1)
3

>  <r_j_Gas_Phase_Energy> (1)
-389.653641201536

>  <r_j_Final_Energy> (1)
-389.653641201536

>  <r_j_HOMO> (1)
-0.249133564122882

>  <r_j_LUMO> (1)
-0.0198970957804779

>  <r_j_Polarizability> (1)
114.636773704051

>  <r_j_QM_Dipole_(debye)> (1)
0.59730955129717

>  <r_j_QM_Dipole_X_(debye)> (1)
-0.280151433368834

>  <r_j_QM_Dipole_Y_(debye)> (1)
0.45022953263732

>  <r_j_QM_Dipole_Z_(debye)> (1)
-0.274931341235217

>  <r_j_Lowest_Frequency_(cm-1)> (1)
88.6816387400733

>  <r_j_Highest_Frequency_(cm-1)> (1)
3143.25588531453

>  <r_j_2nd_Lowest_Frequency_(cm-1)> (1)
113.634824895975

>  <i_j_Num_Negative_Frequencies> (1)
0

>  <r_j_Zero_Point_Energy_(kcal/mol)> (1)
133.322646343475

>  <r_j_Entropy_(cal/mol/K)_298.15K_1.00E+00atm> (1)
94.4662561735026

>  <r_j_Enthalpy_(kcal/mol)_298.15K_1.00E+00atm> (1)
6.61943016208193

>  <r_j_Free_Energy_(kcal/mol)_298.15K_1.00E+00atm> (1)
-21.5456841160479

>  <r_j_Internal_Energy_(kcal/mol)_298.15K_1.00E+00atm> (1)
6.02694457325465

>  <r_j_Heat_Capacity_(cal/mol/K)_298.15K_1.00E+00atm> (1)
37.9449271790529

>  <r_j_ln(Q)_298.15K_1.00E+00atm> (1)
36.3649083156502

>  <r_j_Total_Internal_Energy_(au)_298.15K_1.00E+00atm> (1)
-389.431573491679

>  <r_j_Total_Enthalpy_(au)_298.15K_1.00E+00atm> (1)
-389.430629305786

>  <r_j_Total_Free_Energy_(au)_298.15K_1.00E+00atm> (1)
-389.475513272682

>  <r_lp_tautomer_probability> (1)
1

>  <r_epik_Ionization_Penalty> (1)
  0.0000

>  <r_epik_Ionization_Penalty_Charging> (1)
  0.0000

>  <r_epik_Ionization_Penalty_Neutral> (1)
  0.0000

>  <r_epik_State_Penalty> (1)
  0.0000

>  <r_epik_Charging_Adjusted_Penalty> (1)
0

>  <i_epik_Tot_Q> (1)
0

>  <i_epik_Tot_abs_Q> (1)
0

>  <s_lp_Force_Field> (1)
S-OPLS

>  <r_lp_Energy> (1)
9.76756

>  <b_lp_Chiralities_Consistent> (1)
1

$$$$
