14092_1-Methyl-3-propylbenzene
                    3D
 Schrodinger Suite 2021-3.
 24 24  0  0  1  0            999 V2000
   -0.5827    1.4687   -0.0094 C   0  0  0  0  0  0
   -0.0271    0.0427   -0.0024 C   0  0  0  0  0  0
    1.5137    0.0026    0.0204 C   0  0  0  0  0  0
    2.0511   -1.4107    0.0210 C   0  0  0  0  0  0
    2.2810   -2.0915    1.2204 C   0  0  0  0  0  0
    2.7196   -3.4163    1.2076 C   0  0  0  0  0  0
    2.9330   -4.0740   -0.0013 C   0  0  0  0  0  0
    2.7111   -3.4154   -1.2184 C   0  0  0  0  0  0
    2.2727   -2.0889   -1.1850 C   0  0  0  0  0  0
    2.9458   -4.1317   -2.5282 C   0  0  0  0  0  0
   -1.6774    1.4722   -0.0259 H   0  0  0  0  0  0
   -0.2334    2.0240   -0.8876 H   0  0  0  0  0  0
   -0.2602    2.0224    0.8800 H   0  0  0  0  0  0
   -0.4080   -0.5064    0.8680 H   0  0  0  0  0  0
   -0.3818   -0.5043   -0.8852 H   0  0  0  0  0  0
    1.8977    0.5487   -0.8508 H   0  0  0  0  0  0
    1.8723    0.5396    0.9078 H   0  0  0  0  0  0
    2.1165   -1.5820    2.1669 H   0  0  0  0  0  0
    2.8987   -3.9358    2.1450 H   0  0  0  0  0  0
    3.2770   -5.1057   -0.0047 H   0  0  0  0  0  0
    2.0980   -1.5651   -2.1228 H   0  0  0  0  0  0
    2.7406   -3.4840   -3.3852 H   0  0  0  0  0  0
    2.3042   -5.0162   -2.6161 H   0  0  0  0  0  0
    3.9823   -4.4786   -2.6107 H   0  0  0  0  0  0
  1  2  1  0  0  0
  1 11  1  0  0  0
  1 12  1  0  0  0
  1 13  1  0  0  0
  2  3  1  0  0  0
  2 14  1  0  0  0
  2 15  1  0  0  0
  3  4  1  0  0  0
  3 16  1  0  0  0
  3 17  1  0  0  0
  4  9  1  0  0  0
  4  5  2  0  0  0
  5  6  1  0  0  0
  5 18  1  0  0  0
  6  7  2  0  0  0
  6 19  1  0  0  0
  7  8  1  0  0  0
  7 20  1  0  0  0
  8  9  2  0  0  0
  8 10  1  0  0  0
  9 21  1  0  0  0
 10 22  1  0  0  0
 10 23  1  0  0  0
 10 24  1  0  0  0
M  END
>  <i_m_Spin_multiplicity> (1)
1

>  <s_j_Task> (1)
Single Point

>  <s_j_QM_Method> (1)
DFT(b3lyp-d3)

>  <s_j_QM_Basis> (1)
cc-pvtz(-f)

>  <i_j_Number_of_canonical_orbitals> (1)
349

>  <i_j_Geometry_convergence_category> (1)
0

>  <r_j_Gas_Phase_Energy> (1)
-389.654552401452

>  <r_j_Final_Energy> (1)
-389.654552401452

>  <r_j_HOMO> (1)
-0.250785490637766

>  <r_j_LUMO> (1)
-0.0222081592883556

>  <r_j_Polarizability> (1)
116.294174711688

>  <r_j_QM_Dipole_(debye)> (1)
0.332048067525502

>  <r_j_QM_Dipole_X_(debye)> (1)
-0.167658794622681

>  <r_j_QM_Dipole_Y_(debye)> (1)
0.0496746441393578

>  <r_j_QM_Dipole_Z_(debye)> (1)
-0.282274471858009

>  <r_j_Lowest_Frequency_(cm-1)> (1)
75.9425971520939

>  <r_j_Highest_Frequency_(cm-1)> (1)
3136.26718166625

>  <r_j_2nd_Lowest_Frequency_(cm-1)> (1)
114.276365087959

>  <i_j_Num_Negative_Frequencies> (1)
0

>  <r_j_Zero_Point_Energy_(kcal/mol)> (1)
133.056198670726

>  <r_j_Entropy_(cal/mol/K)_298.15K_1.00E+00atm> (1)
95.6285565693415

>  <r_j_Enthalpy_(kcal/mol)_298.15K_1.00E+00atm> (1)
6.73626295768711

>  <r_j_Free_Energy_(kcal/mol)_298.15K_1.00E+00atm> (1)
-21.7753911834621

>  <r_j_Internal_Energy_(kcal/mol)_298.15K_1.00E+00atm> (1)
6.14377736885983

>  <r_j_Heat_Capacity_(cal/mol/K)_298.15K_1.00E+00atm> (1)
38.1769686199271

>  <r_j_ln(Q)_298.15K_1.00E+00atm> (1)
36.7526089985796

>  <r_j_Total_Internal_Energy_(au)_298.15K_1.00E+00atm> (1)
-389.43272311808

>  <r_j_Total_Enthalpy_(au)_298.15K_1.00E+00atm> (1)
-389.431778932187

>  <r_j_Total_Free_Energy_(au)_298.15K_1.00E+00atm> (1)
-389.47721514551

>  <r_lp_tautomer_probability> (1)
1

>  <r_epik_Ionization_Penalty> (1)
  0.0000

>  <r_epik_Ionization_Penalty_Charging> (1)
  0.0000

>  <r_epik_Ionization_Penalty_Neutral> (1)
  0.0000

>  <r_epik_State_Penalty> (1)
  0.0000

>  <r_epik_Charging_Adjusted_Penalty> (1)
0

>  <i_epik_Tot_Q> (1)
0

>  <i_epik_Tot_abs_Q> (1)
0

>  <s_lp_Force_Field> (1)
S-OPLS

>  <r_lp_Energy> (1)
8.239921

>  <b_lp_Chiralities_Consistent> (1)
1

$$$$
