14095_1-Methyl-4-n-propylbenzene
                    3D
 Schrodinger Suite 2021-3.
 24 24  0  0  1  0            999 V2000
   -0.5932    1.4752    0.0024 C   0  0  0  0  0  0
   -0.0356    0.0499    0.0014 C   0  0  0  0  0  0
    1.5054    0.0110   -0.0016 C   0  0  0  0  0  0
    2.0463   -1.4006   -0.0046 C   0  0  0  0  0  0
    2.2750   -2.0892    1.1941 C   0  0  0  0  0  0
    2.7167   -3.4097    1.1928 C   0  0  0  0  0  0
    2.9473   -4.0942   -0.0083 C   0  0  0  0  0  0
    2.7209   -3.4063   -1.2044 C   0  0  0  0  0  0
    2.2783   -2.0830   -1.2027 C   0  0  0  0  0  0
    3.4271   -5.5269    0.0018 C   0  0  0  0  0  0
   -1.6880    1.4773    0.0046 H   0  0  0  0  0  0
   -0.2598    2.0301   -0.8822 H   0  0  0  0  0  0
   -0.2563    2.0304    0.8855 H   0  0  0  0  0  0
   -0.4016   -0.4985    0.8787 H   0  0  0  0  0  0
   -0.4047   -0.4985   -0.8746 H   0  0  0  0  0  0
    1.8744    0.5547   -0.8808 H   0  0  0  0  0  0
    1.8777    0.5527    0.8775 H   0  0  0  0  0  0
    2.1046   -1.5809    2.1406 H   0  0  0  0  0  0
    2.8891   -3.9187    2.1386 H   0  0  0  0  0  0
    2.8957   -3.9106   -2.1515 H   0  0  0  0  0  0
    2.1113   -1.5727   -2.1486 H   0  0  0  0  0  0
    3.5541   -5.9162   -1.0124 H   0  0  0  0  0  0
    2.7178   -6.1799    0.5237 H   0  0  0  0  0  0
    4.3893   -5.6212    0.5186 H   0  0  0  0  0  0
  1  2  1  0  0  0
  1 11  1  0  0  0
  1 12  1  0  0  0
  1 13  1  0  0  0
  2  3  1  0  0  0
  2 14  1  0  0  0
  2 15  1  0  0  0
  3  4  1  0  0  0
  3 16  1  0  0  0
  3 17  1  0  0  0
  4  9  1  0  0  0
  4  5  2  0  0  0
  5  6  1  0  0  0
  5 18  1  0  0  0
  6  7  2  0  0  0
  6 19  1  0  0  0
  7  8  1  0  0  0
  7 10  1  0  0  0
  8  9  2  0  0  0
  8 20  1  0  0  0
  9 21  1  0  0  0
 10 22  1  0  0  0
 10 23  1  0  0  0
 10 24  1  0  0  0
M  END
>  <i_m_Spin_multiplicity> (1)
1

>  <s_j_Task> (1)
Single Point

>  <s_j_QM_Method> (1)
DFT(b3lyp-d3)

>  <s_j_QM_Basis> (1)
cc-pvtz(-f)

>  <i_j_Number_of_canonical_orbitals> (1)
349

>  <i_j_Geometry_convergence_category> (1)
0

>  <r_j_Gas_Phase_Energy> (1)
-389.654368236464

>  <r_j_Final_Energy> (1)
-389.654368236464

>  <r_j_HOMO> (1)
-0.248775774492183

>  <r_j_LUMO> (1)
-0.025916432161558

>  <r_j_Polarizability> (1)
117.021914777499

>  <r_j_QM_Dipole_(debye)> (1)
0.147888856503132

>  <r_j_QM_Dipole_X_(debye)> (1)
-0.113577614440748

>  <r_j_QM_Dipole_Y_(debye)> (1)
-0.0855503554841576

>  <r_j_QM_Dipole_Z_(debye)> (1)
0.0406494286834035

>  <r_j_Lowest_Frequency_(cm-1)> (1)
79.75622508291

>  <r_j_Highest_Frequency_(cm-1)> (1)
3127.0117624775

>  <r_j_2nd_Lowest_Frequency_(cm-1)> (1)
89.6813117275538

>  <i_j_Num_Negative_Frequencies> (1)
0

>  <r_j_Zero_Point_Energy_(kcal/mol)> (1)
133.044981153811

>  <r_j_Entropy_(cal/mol/K)_298.15K_1.00E+00atm> (1)
95.6502193416957

>  <r_j_Enthalpy_(kcal/mol)_298.15K_1.00E+00atm> (1)
6.74573238487843

>  <r_j_Free_Energy_(kcal/mol)_298.15K_1.00E+00atm> (1)
-21.7723805118482

>  <r_j_Internal_Energy_(kcal/mol)_298.15K_1.00E+00atm> (1)
6.15324679605115

>  <r_j_Heat_Capacity_(cal/mol/K)_298.15K_1.00E+00atm> (1)
38.1710066325859

>  <r_j_ln(Q)_298.15K_1.00E+00atm> (1)
36.7475275726839

>  <r_j_Total_Internal_Energy_(au)_298.15K_1.00E+00atm> (1)
-389.432541738849

>  <r_j_Total_Enthalpy_(au)_298.15K_1.00E+00atm> (1)
-389.431597552957

>  <r_j_Total_Free_Energy_(au)_298.15K_1.00E+00atm> (1)
-389.477044058963

>  <r_lp_tautomer_probability> (1)
1

>  <r_epik_Ionization_Penalty> (1)
  0.0000

>  <r_epik_Ionization_Penalty_Charging> (1)
  0.0000

>  <r_epik_Ionization_Penalty_Neutral> (1)
  0.0000

>  <r_epik_State_Penalty> (1)
  0.0000

>  <r_epik_Charging_Adjusted_Penalty> (1)
0

>  <i_epik_Tot_Q> (1)
0

>  <i_epik_Tot_abs_Q> (1)
0

>  <s_lp_Force_Field> (1)
S-OPLS

>  <r_lp_Energy> (1)
6.889127

>  <b_lp_Chiralities_Consistent> (1)
1

$$$$
