141135_Ethyl tetracosanoate
                    3D
 Schrodinger Suite 2021-3.
 80 79  0  0  1  0            999 V2000
   -0.9895   13.2731    4.1832 C   0  0  0  0  0  0
   -1.0683   12.0805    5.1405 C   0  0  0  0  0  0
   -0.3981   10.8174    4.5859 C   0  0  0  0  0  0
   -0.4830    9.6237    5.5456 C   0  0  0  0  0  0
    0.2477    8.3605    5.0660 C   0  0  0  0  0  0
   -0.3291    7.7327    3.7896 C   0  0  0  0  0  0
    0.3282    6.3939    3.4344 C   0  0  0  0  0  0
   -0.2314    5.7481    2.1613 C   0  0  0  0  0  0
    0.3832    4.3752    1.8658 C   0  0  0  0  0  0
   -0.1703    3.7039    0.6034 C   0  0  0  0  0  0
    0.3985    2.2980    0.3777 C   0  0  0  0  0  0
   -0.1514    1.6030   -0.8757 C   0  0  0  0  0  0
    0.2754    0.1325   -1.0118 C   0  0  0  0  0  0
    1.7740   -0.0821   -1.2658 C   0  0  0  0  0  0
    2.1718   -1.5630   -1.2575 C   0  0  0  0  0  0
    3.6584   -1.8011   -1.5632 C   0  0  0  0  0  0
    4.1409   -3.2239   -1.2392 C   0  0  0  0  0  0
    3.4731   -4.3300   -2.0698 C   0  0  0  0  0  0
    3.9303   -5.7520   -1.7010 C   0  0  0  0  0  0
    3.4980   -6.1921   -0.2959 C   0  0  0  0  0  0
    3.8738   -7.6375    0.0511 C   0  0  0  0  0  0
    3.4364   -8.0190    1.4690 C   0  0  0  0  0  0
    3.7962   -9.4535    1.8554 C   0  0  0  0  0  0
    3.3574   -9.7945    3.2660 C   0  0  0  0  0  0
    2.7703   -9.0460    4.0184 O   0  0  0  0  0  0
    3.7043  -11.0594    3.5949 O   0  0  0  0  0  0
    3.3277  -11.4824    4.9270 C   0  0  0  0  0  0
    3.8026  -12.9121    5.0981 C   0  0  0  0  0  0
   -1.4742   14.1604    4.6039 H   0  0  0  0  0  0
   -1.4794   13.0459    3.2294 H   0  0  0  0  0  0
    0.0522   13.5343    3.9640 H   0  0  0  0  0  0
   -0.6014   12.3463    6.0987 H   0  0  0  0  0  0
   -2.1203   11.8602    5.3675 H   0  0  0  0  0  0
   -0.8618   10.5601    3.6245 H   0  0  0  0  0  0
    0.6579   11.0321    4.3660 H   0  0  0  0  0  0
   -0.0701    9.9242    6.5184 H   0  0  0  0  0  0
   -1.5401    9.3820    5.7275 H   0  0  0  0  0  0
    1.3104    8.5928    4.9065 H   0  0  0  0  0  0
    0.2197    7.6115    5.8692 H   0  0  0  0  0  0
   -1.4110    7.5826    3.9175 H   0  0  0  0  0  0
   -0.2163    8.4254    2.9454 H   0  0  0  0  0  0
    1.4124    6.5381    3.3223 H   0  0  0  0  0  0
    0.2029    5.6978    4.2762 H   0  0  0  0  0  0
   -1.3217    5.6434    2.2563 H   0  0  0  0  0  0
   -0.0649    6.4185    1.3061 H   0  0  0  0  0  0
    1.4743    4.4755    1.7755 H   0  0  0  0  0  0
    0.2125    3.7142    2.7279 H   0  0  0  0  0  0
   -1.2660    3.6446    0.6736 H   0  0  0  0  0  0
    0.0435    4.3339   -0.2719 H   0  0  0  0  0  0
    1.4932    2.3605    0.3233 H   0  0  0  0  0  0
    0.1748    1.6767    1.2573 H   0  0  0  0  0  0
   -1.2486    1.6509   -0.8512 H   0  0  0  0  0  0
    0.1566    2.1621   -1.7709 H   0  0  0  0  0  0
   -0.0144   -0.4059   -0.0976 H   0  0  0  0  0  0
   -0.2906   -0.3352   -1.8287 H   0  0  0  0  0  0
    2.0482    0.3723   -2.2288 H   0  0  0  0  0  0
    2.3639    0.4431   -0.5035 H   0  0  0  0  0  0
    1.9353   -1.9868   -0.2703 H   0  0  0  0  0  0
    1.5484   -2.1099   -1.9769 H   0  0  0  0  0  0
    3.8565   -1.5706   -2.6196 H   0  0  0  0  0  0
    4.2580   -1.0890   -0.9798 H   0  0  0  0  0  0
    5.2283   -3.2817   -1.3858 H   0  0  0  0  0  0
    3.9687   -3.4078   -0.1708 H   0  0  0  0  0  0
    2.3825   -4.2733   -1.9569 H   0  0  0  0  0  0
    3.6790   -4.1453   -3.1330 H   0  0  0  0  0  0
    3.5234   -6.4606   -2.4351 H   0  0  0  0  0  0
    5.0245   -5.8205   -1.7854 H   0  0  0  0  0  0
    3.9405   -5.5267    0.4562 H   0  0  0  0  0  0
    2.4091   -6.0713   -0.2016 H   0  0  0  0  0  0
    3.4165   -8.3228   -0.6771 H   0  0  0  0  0  0
    4.9610   -7.7683   -0.0494 H   0  0  0  0  0  0
    3.8889   -7.3328    2.1946 H   0  0  0  0  0  0
    2.3534   -7.8841    1.5740 H   0  0  0  0  0  0
    3.3357  -10.1811    1.1745 H   0  0  0  0  0  0
    4.8771   -9.6305    1.7860 H   0  0  0  0  0  0
    3.7841  -10.8052    5.6567 H   0  0  0  0  0  0
    2.2417  -11.3920    5.0345 H   0  0  0  0  0  0
    3.5388  -13.2760    6.0962 H   0  0  0  0  0  0
    4.8882  -12.9772    4.9817 H   0  0  0  0  0  0
    3.3369  -13.5674    4.3565 H   0  0  0  0  0  0
  1  2  1  0  0  0
  1 29  1  0  0  0
  1 30  1  0  0  0
  1 31  1  0  0  0
  2  3  1  0  0  0
  2 32  1  0  0  0
  2 33  1  0  0  0
  3  4  1  0  0  0
  3 34  1  0  0  0
  3 35  1  0  0  0
  4  5  1  0  0  0
  4 36  1  0  0  0
  4 37  1  0  0  0
  5  6  1  0  0  0
  5 38  1  0  0  0
  5 39  1  0  0  0
  6  7  1  0  0  0
  6 40  1  0  0  0
  6 41  1  0  0  0
  7  8  1  0  0  0
  7 42  1  0  0  0
  7 43  1  0  0  0
  8  9  1  0  0  0
  8 44  1  0  0  0
  8 45  1  0  0  0
  9 10  1  0  0  0
  9 46  1  0  0  0
  9 47  1  0  0  0
 10 11  1  0  0  0
 10 48  1  0  0  0
 10 49  1  0  0  0
 11 12  1  0  0  0
 11 50  1  0  0  0
 11 51  1  0  0  0
 12 13  1  0  0  0
 12 52  1  0  0  0
 12 53  1  0  0  0
 13 14  1  0  0  0
 13 54  1  0  0  0
 13 55  1  0  0  0
 14 15  1  0  0  0
 14 56  1  0  0  0
 14 57  1  0  0  0
 15 16  1  0  0  0
 15 58  1  0  0  0
 15 59  1  0  0  0
 16 17  1  0  0  0
 16 60  1  0  0  0
 16 61  1  0  0  0
 17 18  1  0  0  0
 17 62  1  0  0  0
 17 63  1  0  0  0
 18 19  1  0  0  0
 18 64  1  0  0  0
 18 65  1  0  0  0
 19 20  1  0  0  0
 19 66  1  0  0  0
 19 67  1  0  0  0
 20 21  1  0  0  0
 20 68  1  0  0  0
 20 69  1  0  0  0
 21 22  1  0  0  0
 21 70  1  0  0  0
 21 71  1  0  0  0
 22 23  1  0  0  0
 22 72  1  0  0  0
 22 73  1  0  0  0
 23 24  1  0  0  0
 23 74  1  0  0  0
 23 75  1  0  0  0
 24 25  2  0  0  0
 24 26  1  0  0  0
 26 27  1  0  0  0
 27 28  1  0  0  0
 27 76  1  0  0  0
 27 77  1  0  0  0
 28 78  1  0  0  0
 28 79  1  0  0  0
 28 80  1  0  0  0
M  END
>  <i_m_Spin_multiplicity> (1)
1

>  <s_j_Task> (1)
Single Point

>  <s_j_QM_Method> (1)
DFT(b3lyp-d3)

>  <s_j_QM_Basis> (1)
cc-pvtz(-f)

>  <i_j_Number_of_canonical_orbitals> (1)
1104

>  <i_j_Geometry_convergence_category> (1)
4

>  <r_j_Gas_Phase_Energy> (1)
-1173.07201549798

>  <r_j_Final_Energy> (1)
-1173.07201549798

>  <r_j_HOMO> (1)
-0.274182247251183

>  <r_j_LUMO> (1)
-0.0644392827591936

>  <r_j_Polarizability> (1)
329.124121782955

>  <r_j_QM_Dipole_(debye)> (1)
1.69867809834364

>  <r_j_QM_Dipole_X_(debye)> (1)
0.749361293391846

>  <r_j_QM_Dipole_Y_(debye)> (1)
-1.4218349985006

>  <r_j_QM_Dipole_Z_(debye)> (1)
-0.549863774763598

>  <r_j_Lowest_Frequency_(cm-1)> (1)
18.794050508835

>  <r_j_Highest_Frequency_(cm-1)> (1)
3073.79438238387

>  <r_j_2nd_Lowest_Frequency_(cm-1)> (1)
24.3396868728612

>  <i_j_Num_Negative_Frequencies> (1)
0

>  <r_j_Zero_Point_Energy_(kcal/mol)> (1)
467.460061835184

>  <r_j_Entropy_(cal/mol/K)_298.15K_1.00E+00atm> (1)
203.488004433204

>  <r_j_Enthalpy_(kcal/mol)_298.15K_1.00E+00atm> (1)
21.6011322528505

>  <r_j_Free_Energy_(kcal/mol)_298.15K_1.00E+00atm> (1)
-39.0688162689093

>  <r_j_Internal_Energy_(kcal/mol)_298.15K_1.00E+00atm> (1)
21.0086466640233

>  <r_j_Heat_Capacity_(cal/mol/K)_298.15K_1.00E+00atm> (1)
128.172000042932

>  <r_j_ln(Q)_298.15K_1.00E+00atm> (1)
65.9405342604863

>  <r_j_Total_Internal_Energy_(au)_298.15K_1.00E+00atm> (1)
-1172.29359105684

>  <r_j_Total_Enthalpy_(au)_298.15K_1.00E+00atm> (1)
-1172.29264687094

>  <r_j_Total_Free_Energy_(au)_298.15K_1.00E+00atm> (1)
-1172.38933058876

>  <r_lp_tautomer_probability> (1)
1

>  <r_epik_Ionization_Penalty> (1)
  0.0000

>  <r_epik_Ionization_Penalty_Charging> (1)
  0.0000

>  <r_epik_Ionization_Penalty_Neutral> (1)
  0.0000

>  <r_epik_State_Penalty> (1)
  0.0000

>  <r_epik_Charging_Adjusted_Penalty> (1)
0

>  <i_epik_Tot_Q> (1)
0

>  <i_epik_Tot_abs_Q> (1)
0

>  <s_lp_Force_Field> (1)
S-OPLS

>  <r_lp_Energy> (1)
12.867577

>  <b_lp_Chiralities_Consistent> (1)
1

>  <s_epik_Chemistry_Notes> (1)
This compound has an ester and may undergo hydrolysis at high or low pH.

$$$$
