14123547_Ethylguaicol
                    3D
 Schrodinger Suite 2021-3.
 23 23  0  0  1  0            999 V2000
   -0.5450    1.4657   -0.1277 C   0  0  0  0  0  0
   -0.0125    0.0550    0.1770 C   0  0  0  0  0  0
    1.4974   -0.0112    0.1243 C   0  0  0  0  0  0
    2.1466   -0.0360   -1.1171 C   0  0  0  0  0  0
    3.5515   -0.0580   -1.1856 C   0  0  0  0  0  0
    4.3047   -0.0654   -0.0106 C   0  0  0  0  0  0
    3.6615   -0.0359    1.2266 C   0  0  0  0  0  0
    2.2712   -0.0049    1.2924 C   0  0  0  0  0  0
    4.1206   -0.0707   -2.4320 O   0  0  0  0  0  0
    1.3869    0.0200   -2.2661 O   0  0  0  0  0  0
    1.3911   -1.1750   -3.0539 C   0  0  0  0  0  0
   -1.6384    1.4926   -0.0732 H   0  0  0  0  0  0
   -0.2407    1.7725   -1.1317 H   0  0  0  0  0  0
   -0.1490    2.1935    0.5879 H   0  0  0  0  0  0
   -0.3516   -0.2647    1.1689 H   0  0  0  0  0  0
   -0.4346   -0.6473   -0.5498 H   0  0  0  0  0  0
    5.3910   -0.0860   -0.0701 H   0  0  0  0  0  0
    4.2521   -0.0389    2.1378 H   0  0  0  0  0  0
    1.7726    0.0178    2.2574 H   0  0  0  0  0  0
    5.0813   -0.0851   -2.3339 H   0  0  0  0  0  0
    0.7118   -0.9920   -3.8891 H   0  0  0  0  0  0
    1.0251   -2.0300   -2.4699 H   0  0  0  0  0  0
    2.3915   -1.3972   -3.4377 H   0  0  0  0  0  0
  1  2  1  0  0  0
  1 12  1  0  0  0
  1 13  1  0  0  0
  1 14  1  0  0  0
  2  3  1  0  0  0
  2 15  1  0  0  0
  2 16  1  0  0  0
  3  8  1  0  0  0
  3  4  2  0  0  0
  4  5  1  0  0  0
  4 10  1  0  0  0
  5  6  2  0  0  0
  5  9  1  0  0  0
  6  7  1  0  0  0
  6 17  1  0  0  0
  7  8  2  0  0  0
  7 18  1  0  0  0
  8 19  1  0  0  0
  9 20  1  0  0  0
 10 11  1  0  0  0
 11 21  1  0  0  0
 11 22  1  0  0  0
 11 23  1  0  0  0
M  END
>  <i_m_Spin_multiplicity> (1)
1

>  <s_j_Task> (1)
Single Point

>  <s_j_QM_Method> (1)
DFT(b3lyp-d3)

>  <s_j_QM_Basis> (1)
cc-pvtz(-f)

>  <i_j_Number_of_canonical_orbitals> (1)
355

>  <i_j_Geometry_convergence_category> (1)
3

>  <r_j_Gas_Phase_Energy> (1)
-500.804430338678

>  <r_j_Final_Energy> (1)
-500.804430338678

>  <r_j_HOMO> (1)
-0.220982170920271

>  <r_j_LUMO> (1)
-0.00776949758456163

>  <r_j_Polarizability> (1)
111.648228666243

>  <r_j_QM_Dipole_(debye)> (1)
1.7523574743481

>  <r_j_QM_Dipole_X_(debye)> (1)
1.35369452135279

>  <r_j_QM_Dipole_Y_(debye)> (1)
-1.10076460672733

>  <r_j_QM_Dipole_Z_(debye)> (1)
0.163049505793533

>  <r_j_Lowest_Frequency_(cm-1)> (1)
100.176598592979

>  <r_j_Highest_Frequency_(cm-1)> (1)
3774.62881360879

>  <r_j_2nd_Lowest_Frequency_(cm-1)> (1)
104.917986021091

>  <i_j_Num_Negative_Frequencies> (1)
0

>  <r_j_Zero_Point_Energy_(kcal/mol)> (1)
121.01109792534

>  <r_j_Entropy_(cal/mol/K)_298.15K_1.00E+00atm> (1)
99.1008965803659

>  <r_j_Enthalpy_(kcal/mol)_298.15K_1.00E+00atm> (1)
7.25176416478985

>  <r_j_Free_Energy_(kcal/mol)_298.15K_1.00E+00atm> (1)
-22.2951681506462

>  <r_j_Internal_Energy_(kcal/mol)_298.15K_1.00E+00atm> (1)
6.65927857596258

>  <r_j_Heat_Capacity_(cal/mol/K)_298.15K_1.00E+00atm> (1)
41.1243651968167

>  <r_j_ln(Q)_298.15K_1.00E+00atm> (1)
37.6298910405159

>  <r_j_Total_Internal_Energy_(au)_298.15K_1.00E+00atm> (1)
-500.600974641824

>  <r_j_Total_Enthalpy_(au)_298.15K_1.00E+00atm> (1)
-500.600030455932

>  <r_j_Total_Free_Energy_(au)_298.15K_1.00E+00atm> (1)
-500.647116490052

>  <r_lp_tautomer_probability> (1)
1

>  <r_epik_Ionization_Penalty> (1)
  0.0006

>  <r_epik_Ionization_Penalty_Charging> (1)
  0.0000

>  <r_epik_Ionization_Penalty_Neutral> (1)
  0.0006

>  <r_epik_State_Penalty> (1)
  0.0004

>  <r_epik_Charging_Adjusted_Penalty> (1)
0.00040971

>  <i_epik_Tot_Q> (1)
0

>  <i_epik_Tot_abs_Q> (1)
0

>  <s_lp_Force_Field> (1)
S-OPLS

>  <r_lp_Energy> (1)
18.2617

>  <b_lp_Chiralities_Consistent> (1)
1

$$$$
