14257_N-undecane
                    3D
 Schrodinger Suite 2021-3.
 35 34  0  0  1  0            999 V2000
   -4.1549    3.2397   -0.1569 C   0  0  0  0  0  0
   -2.6289    3.1154   -0.1184 C   0  0  0  0  0  0
   -2.1456    1.6610   -0.0686 C   0  0  0  0  0  0
   -0.6191    1.5262   -0.0303 C   0  0  0  0  0  0
   -0.1355    0.0723    0.0248 C   0  0  0  0  0  0
    1.3933   -0.0533    0.0720 C   0  0  0  0  0  0
    1.9156   -1.4982    0.0563 C   0  0  0  0  0  0
    1.5284   -2.3265    1.2888 C   0  0  0  0  0  0
    2.1413   -3.7317    1.2911 C   0  0  0  0  0  0
    1.7482   -4.5648    2.5171 C   0  0  0  0  0  0
    2.3663   -5.9660    2.5146 C   0  0  0  0  0  0
   -4.4738    4.2867   -0.1916 H   0  0  0  0  0  0
   -4.6097    2.7813    0.7289 H   0  0  0  0  0  0
   -4.5690    2.7352   -1.0376 H   0  0  0  0  0  0
   -2.1971    3.6097   -0.9994 H   0  0  0  0  0  0
   -2.2377    3.6559    0.7544 H   0  0  0  0  0  0
   -2.5770    1.1656    0.8134 H   0  0  0  0  0  0
   -2.5373    1.1182   -0.9411 H   0  0  0  0  0  0
   -0.1881    2.0204   -0.9129 H   0  0  0  0  0  0
   -0.2288    2.0710    0.8414 H   0  0  0  0  0  0
   -0.5789   -0.4165    0.9021 H   0  0  0  0  0  0
   -0.5166   -0.4724   -0.8514 H   0  0  0  0  0  0
    1.8181    0.4879   -0.7844 H   0  0  0  0  0  0
    1.7700    0.4575    0.9700 H   0  0  0  0  0  0
    1.5528   -2.0055   -0.8494 H   0  0  0  0  0  0
    3.0109   -1.4788   -0.0258 H   0  0  0  0  0  0
    1.8426   -1.7914    2.1970 H   0  0  0  0  0  0
    0.4360   -2.4154    1.3521 H   0  0  0  0  0  0
    1.8363   -4.2635    0.3780 H   0  0  0  0  0  0
    3.2370   -3.6523    1.2420 H   0  0  0  0  0  0
    2.0505   -4.0308    3.4284 H   0  0  0  0  0  0
    0.6534   -4.6458    2.5625 H   0  0  0  0  0  0
    2.0699   -6.5392    3.3993 H   0  0  0  0  0  0
    3.4612   -5.9133    2.5023 H   0  0  0  0  0  0
    2.0542   -6.5325    1.6296 H   0  0  0  0  0  0
  1  2  1  0  0  0
  1 12  1  0  0  0
  1 13  1  0  0  0
  1 14  1  0  0  0
  2  3  1  0  0  0
  2 15  1  0  0  0
  2 16  1  0  0  0
  3  4  1  0  0  0
  3 17  1  0  0  0
  3 18  1  0  0  0
  4  5  1  0  0  0
  4 19  1  0  0  0
  4 20  1  0  0  0
  5  6  1  0  0  0
  5 21  1  0  0  0
  5 22  1  0  0  0
  6  7  1  0  0  0
  6 23  1  0  0  0
  6 24  1  0  0  0
  7  8  1  0  0  0
  7 25  1  0  0  0
  7 26  1  0  0  0
  8  9  1  0  0  0
  8 27  1  0  0  0
  8 28  1  0  0  0
  9 10  1  0  0  0
  9 29  1  0  0  0
  9 30  1  0  0  0
 10 11  1  0  0  0
 10 31  1  0  0  0
 10 32  1  0  0  0
 11 33  1  0  0  0
 11 34  1  0  0  0
 11 35  1  0  0  0
M  END
>  <i_m_Spin_multiplicity> (1)
1

>  <s_j_Task> (1)
Single Point

>  <s_j_QM_Method> (1)
DFT(b3lyp-d3)

>  <s_j_QM_Basis> (1)
cc-pvtz(-f)

>  <i_j_Number_of_canonical_orbitals> (1)
465

>  <i_j_Geometry_convergence_category> (1)
0

>  <r_j_Gas_Phase_Energy> (1)
-433.828600142876

>  <r_j_Final_Energy> (1)
-433.828600142876

>  <r_j_HOMO> (1)
-0.299412977697747

>  <r_j_LUMO> (1)
-0.000386066069494527

>  <r_j_Polarizability> (1)
137.511173595458

>  <r_j_QM_Dipole_(debye)> (1)
0.0653689591302828

>  <r_j_QM_Dipole_X_(debye)> (1)
0.02898432878155

>  <r_j_QM_Dipole_Y_(debye)> (1)
0.0572630937517413

>  <r_j_QM_Dipole_Z_(debye)> (1)
0.0124075620828142

>  <r_j_Lowest_Frequency_(cm-1)> (1)
51.3094756030168

>  <r_j_Highest_Frequency_(cm-1)> (1)
3045.76472712505

>  <r_j_2nd_Lowest_Frequency_(cm-1)> (1)
94.943987035337

>  <i_j_Num_Negative_Frequencies> (1)
0

>  <r_j_Zero_Point_Energy_(kcal/mol)> (1)
207.772548877097

>  <r_j_Entropy_(cal/mol/K)_298.15K_1.00E+00atm> (1)
115.31046053949

>  <r_j_Enthalpy_(kcal/mol)_298.15K_1.00E+00atm> (1)
9.32816919986758

>  <r_j_Free_Energy_(kcal/mol)_298.15K_1.00E+00atm> (1)
-25.0516446099814

>  <r_j_Internal_Energy_(kcal/mol)_298.15K_1.00E+00atm> (1)
8.7356836110403

>  <r_j_Heat_Capacity_(cal/mol/K)_298.15K_1.00E+00atm> (1)
52.3259959027683

>  <r_j_ln(Q)_298.15K_1.00E+00atm> (1)
42.2822851431154

>  <r_j_Total_Internal_Energy_(au)_298.15K_1.00E+00atm> (1)
-433.483572310088

>  <r_j_Total_Enthalpy_(au)_298.15K_1.00E+00atm> (1)
-433.482628124195

>  <r_j_Total_Free_Energy_(au)_298.15K_1.00E+00atm> (1)
-433.537415845263

>  <r_lp_tautomer_probability> (1)
1

>  <r_epik_Ionization_Penalty> (1)
  0.0000

>  <r_epik_Ionization_Penalty_Charging> (1)
  0.0000

>  <r_epik_Ionization_Penalty_Neutral> (1)
  0.0000

>  <r_epik_State_Penalty> (1)
  0.0000

>  <r_epik_Charging_Adjusted_Penalty> (1)
0

>  <i_epik_Tot_Q> (1)
0

>  <i_epik_Tot_abs_Q> (1)
0

>  <s_lp_Force_Field> (1)
S-OPLS

>  <r_lp_Energy> (1)
4.988288

>  <b_lp_Chiralities_Consistent> (1)
1

$$$$
