14259_Methyl eicosanoate
                    3D
 Schrodinger Suite 2021-3.
 65 64  0  0  1  0            999 V2000
   -2.3689    9.7391    1.3916 C   0  0  0  0  0  0
   -1.9384    8.2727    1.2941 C   0  0  0  0  0  0
   -2.6614    7.5040    0.1814 C   0  0  0  0  0  0
   -2.2250    6.0383    0.0797 C   0  0  0  0  0  0
   -2.9398    5.2609   -1.0342 C   0  0  0  0  0  0
   -2.4356    3.8197   -1.2130 C   0  0  0  0  0  0
   -2.7652    2.8867   -0.0379 C   0  0  0  0  0  0
   -2.2395    1.4519   -0.2048 C   0  0  0  0  0  0
   -0.7086    1.3461   -0.1847 C   0  0  0  0  0  0
   -0.1879   -0.0952   -0.2201 C   0  0  0  0  0  0
    1.3428   -0.1728   -0.1984 C   0  0  0  0  0  0
    1.8950   -1.6024   -0.1984 C   0  0  0  0  0  0
    3.4269   -1.6497   -0.1719 C   0  0  0  0  0  0
    4.0027   -3.0696   -0.1450 C   0  0  0  0  0  0
    5.5351   -3.0946   -0.1148 C   0  0  0  0  0  0
    6.1262   -4.5075   -0.0672 C   0  0  0  0  0  0
    7.6586   -4.5190   -0.0353 C   0  0  0  0  0  0
    8.2507   -5.9310    0.0273 C   0  0  0  0  0  0
    9.7812   -5.9160    0.0573 C   0  0  0  0  0  0
   10.4819   -7.2604    0.1206 C   0  0  0  0  0  0
   11.6836   -7.4048    0.0550 O   0  0  0  0  0  0
    9.6190   -8.2917    0.2687 O   0  0  0  0  0  0
   10.2308   -9.5906    0.3459 C   0  0  0  0  0  0
   -1.8374   10.2626    2.1933 H   0  0  0  0  0  0
   -3.4430    9.8221    1.5937 H   0  0  0  0  0  0
   -2.1681   10.2720    0.4550 H   0  0  0  0  0  0
   -0.8544    8.2183    1.1238 H   0  0  0  0  0  0
   -2.1190    7.7714    2.2549 H   0  0  0  0  0  0
   -3.7466    7.5517    0.3522 H   0  0  0  0  0  0
   -2.4847    8.0059   -0.7809 H   0  0  0  0  0  0
   -1.1397    5.9953   -0.0932 H   0  0  0  0  0  0
   -2.3960    5.5493    1.0475 H   0  0  0  0  0  0
   -4.0214    5.2507   -0.8365 H   0  0  0  0  0  0
   -2.8098    5.8031   -1.9806 H   0  0  0  0  0  0
   -2.8690    3.3945   -2.1286 H   0  0  0  0  0  0
   -1.3502    3.8474   -1.3756 H   0  0  0  0  0  0
   -2.3576    3.3008    0.8936 H   0  0  0  0  0  0
   -3.8557    2.8611    0.0929 H   0  0  0  0  0  0
   -2.6468    0.8279    0.6024 H   0  0  0  0  0  0
   -2.6236    1.0248   -1.1423 H   0  0  0  0  0  0
   -0.2841    1.8972   -1.0339 H   0  0  0  0  0  0
   -0.3275    1.8440    0.7189 H   0  0  0  0  0  0
   -0.5944   -0.6517    0.6365 H   0  0  0  0  0  0
   -0.5682   -0.6016   -1.1188 H   0  0  0  0  0  0
    1.7450    0.3711   -1.0652 H   0  0  0  0  0  0
    1.7176    0.3574    0.6890 H   0  0  0  0  0  0
    1.4981   -2.1465    0.6706 H   0  0  0  0  0  0
    1.5272   -2.1380   -1.0853 H   0  0  0  0  0  0
    3.8210   -1.1148   -1.0480 H   0  0  0  0  0  0
    3.7899   -1.0967    0.7064 H   0  0  0  0  0  0
    3.6122   -3.6044    0.7326 H   0  0  0  0  0  0
    3.6454   -3.6266   -1.0229 H   0  0  0  0  0  0
    5.9240   -2.5675   -0.9978 H   0  0  0  0  0  0
    5.8891   -2.5249    0.7564 H   0  0  0  0  0  0
    5.7404   -5.0344    0.8172 H   0  0  0  0  0  0
    5.7759   -5.0803   -0.9376 H   0  0  0  0  0  0
    8.0444   -3.9983   -0.9236 H   0  0  0  0  0  0
    8.0078   -3.9378    0.8303 H   0  0  0  0  0  0
    7.8738   -6.4536    0.9139 H   0  0  0  0  0  0
    7.9085   -6.5164   -0.8345 H   0  0  0  0  0  0
   10.1871   -5.4033   -0.8232 H   0  0  0  0  0  0
   10.1467   -5.3420    0.9187 H   0  0  0  0  0  0
    9.4098  -10.2971    0.4682 H   0  0  0  0  0  0
   10.9156   -9.6434    1.1965 H   0  0  0  0  0  0
   10.7924   -9.8061   -0.5669 H   0  0  0  0  0  0
  1  2  1  0  0  0
  1 24  1  0  0  0
  1 25  1  0  0  0
  1 26  1  0  0  0
  2  3  1  0  0  0
  2 27  1  0  0  0
  2 28  1  0  0  0
  3  4  1  0  0  0
  3 29  1  0  0  0
  3 30  1  0  0  0
  4  5  1  0  0  0
  4 31  1  0  0  0
  4 32  1  0  0  0
  5  6  1  0  0  0
  5 33  1  0  0  0
  5 34  1  0  0  0
  6  7  1  0  0  0
  6 35  1  0  0  0
  6 36  1  0  0  0
  7  8  1  0  0  0
  7 37  1  0  0  0
  7 38  1  0  0  0
  8  9  1  0  0  0
  8 39  1  0  0  0
  8 40  1  0  0  0
  9 10  1  0  0  0
  9 41  1  0  0  0
  9 42  1  0  0  0
 10 11  1  0  0  0
 10 43  1  0  0  0
 10 44  1  0  0  0
 11 12  1  0  0  0
 11 45  1  0  0  0
 11 46  1  0  0  0
 12 13  1  0  0  0
 12 47  1  0  0  0
 12 48  1  0  0  0
 13 14  1  0  0  0
 13 49  1  0  0  0
 13 50  1  0  0  0
 14 15  1  0  0  0
 14 51  1  0  0  0
 14 52  1  0  0  0
 15 16  1  0  0  0
 15 53  1  0  0  0
 15 54  1  0  0  0
 16 17  1  0  0  0
 16 55  1  0  0  0
 16 56  1  0  0  0
 17 18  1  0  0  0
 17 57  1  0  0  0
 17 58  1  0  0  0
 18 19  1  0  0  0
 18 59  1  0  0  0
 18 60  1  0  0  0
 19 20  1  0  0  0
 19 61  1  0  0  0
 19 62  1  0  0  0
 20 21  2  0  0  0
 20 22  1  0  0  0
 22 23  1  0  0  0
 23 63  1  0  0  0
 23 64  1  0  0  0
 23 65  1  0  0  0
M  END
>  <i_m_Spin_multiplicity> (1)
1

>  <s_j_Task> (1)
Single Point

>  <s_j_QM_Method> (1)
DFT(b3lyp-d3)

>  <s_j_QM_Basis> (1)
cc-pvtz(-f)

>  <i_j_Number_of_canonical_orbitals> (1)
899

>  <i_j_Geometry_convergence_category> (1)
0

>  <r_j_Gas_Phase_Energy> (1)
-976.420616255917

>  <r_j_Final_Energy> (1)
-976.420616255917

>  <r_j_HOMO> (1)
-0.272979994432337

>  <r_j_LUMO> (1)
-0.0353911294655903

>  <r_j_Polarizability> (1)
266.776670324907

>  <r_j_QM_Dipole_(debye)> (1)
2.0406280529005

>  <r_j_QM_Dipole_X_(debye)> (1)
-2.0066584899116

>  <r_j_QM_Dipole_Y_(debye)> (1)
-0.331743695330837

>  <r_j_QM_Dipole_Z_(debye)> (1)
0.165622087169565

>  <r_j_Lowest_Frequency_(cm-1)> (1)
21.1347428258482

>  <r_j_Highest_Frequency_(cm-1)> (1)
3108.41059973763

>  <r_j_2nd_Lowest_Frequency_(cm-1)> (1)
25.3590126763653

>  <i_j_Num_Negative_Frequencies> (1)
0

>  <r_j_Zero_Point_Energy_(kcal/mol)> (1)
378.120711489305

>  <r_j_Entropy_(cal/mol/K)_298.15K_1.00E+00atm> (1)
177.6740578635

>  <r_j_Enthalpy_(kcal/mol)_298.15K_1.00E+00atm> (1)
17.8787528761259

>  <r_j_Free_Energy_(kcal/mol)_298.15K_1.00E+00atm> (1)
-35.0947674758768

>  <r_j_Internal_Energy_(kcal/mol)_298.15K_1.00E+00atm> (1)
17.2862672872986

>  <r_j_Heat_Capacity_(cal/mol/K)_298.15K_1.00E+00atm> (1)
104.437887932892

>  <r_j_ln(Q)_298.15K_1.00E+00atm> (1)
59.2331157713742

>  <r_j_Total_Internal_Energy_(au)_298.15K_1.00E+00atm> (1)
-975.790495122005

>  <r_j_Total_Enthalpy_(au)_298.15K_1.00E+00atm> (1)
-975.789550936113

>  <r_j_Total_Free_Energy_(au)_298.15K_1.00E+00atm> (1)
-975.87396961485

>  <r_lp_tautomer_probability> (1)
1

>  <r_epik_Ionization_Penalty> (1)
  0.0000

>  <r_epik_Ionization_Penalty_Charging> (1)
  0.0000

>  <r_epik_Ionization_Penalty_Neutral> (1)
  0.0000

>  <r_epik_State_Penalty> (1)
  0.0000

>  <r_epik_Charging_Adjusted_Penalty> (1)
0

>  <i_epik_Tot_Q> (1)
0

>  <i_epik_Tot_abs_Q> (1)
0

>  <s_lp_Force_Field> (1)
S-OPLS

>  <r_lp_Energy> (1)
11.7037

>  <b_lp_Chiralities_Consistent> (1)
1

>  <s_epik_Chemistry_Notes> (1)
This compound has an ester and may undergo hydrolysis at high or low pH.

$$$$
