142770_Eicosenoic acid
                    3D
 Schrodinger Suite 2021-3.
 59 58  0  0  1  0            999 V2000
   -7.1990    3.5513   -6.4073 C   0  0  0  0  0  0
   -6.5760    2.7671   -5.2483 C   0  0  0  0  0  0
   -7.0694    3.2435   -3.8748 C   0  0  0  0  0  0
   -6.5361    2.4253   -2.6883 C   0  0  0  0  0  0
   -5.0193    2.5240   -2.4788 C   0  0  0  0  0  0
   -4.5216    1.7300   -1.2651 C   0  0  0  0  0  0
   -3.0036    1.8151   -1.0724 C   0  0  0  0  0  0
   -2.4859    0.9759    0.1117 C   0  0  0  0  0  0
   -0.9950    1.0906    0.2776 C   0  0  0  0  0  0
   -0.1165    0.1168    0.0279 C   0  0  0  0  0  0
    1.3798    0.2515    0.0792 C   0  0  0  0  0  0
    2.0214    0.1396   -1.3180 C   0  0  0  0  0  0
    3.5523    0.2032   -1.2922 C   0  0  0  0  0  0
    4.1792    0.1345   -2.6914 C   0  0  0  0  0  0
    5.7148    0.0769   -2.6951 C   0  0  0  0  0  0
    6.4099    1.3176   -2.1191 C   0  0  0  0  0  0
    7.9405    1.2585   -2.2100 C   0  0  0  0  0  0
    8.6420    2.4781   -1.6016 C   0  0  0  0  0  0
   10.1683    2.4277   -1.6560 C   0  0  0  0  0  0
   10.8750    3.5614   -0.8114 C   0  0  0  0  0  0
   12.0340    3.8557   -1.1910 O   0  0  0  0  0  0
   10.2066    4.0077    0.1579 O   0  5  0  0  0  0
   -6.8324    3.1972   -7.3766 H   0  0  0  0  0  0
   -6.9624    4.6190   -6.3318 H   0  0  0  0  0  0
   -8.2912    3.4556   -6.4075 H   0  0  0  0  0  0
   -6.8046    1.6981   -5.3609 H   0  0  0  0  0  0
   -5.4839    2.8517   -5.3020 H   0  0  0  0  0  0
   -6.7968    4.3004   -3.7403 H   0  0  0  0  0  0
   -8.1679    3.2109   -3.8657 H   0  0  0  0  0  0
   -7.0418    2.7557   -1.7707 H   0  0  0  0  0  0
   -6.8142    1.3699   -2.8238 H   0  0  0  0  0  0
   -4.4941    2.1656   -3.3734 H   0  0  0  0  0  0
   -4.7375    3.5808   -2.3648 H   0  0  0  0  0  0
   -5.0283    2.0892   -0.3576 H   0  0  0  0  0  0
   -4.8146    0.6761   -1.3782 H   0  0  0  0  0  0
   -2.4960    1.4801   -1.9866 H   0  0  0  0  0  0
   -2.7101    2.8647   -0.9307 H   0  0  0  0  0  0
   -2.9970    1.3049    1.0288 H   0  0  0  0  0  0
   -2.7648   -0.0751   -0.0411 H   0  0  0  0  0  0
   -0.6210    2.0716    0.5780 H   0  0  0  0  0  0
   -0.4946   -0.8578   -0.2905 H   0  0  0  0  0  0
    1.6568    1.2122    0.5315 H   0  0  0  0  0  0
    1.8041   -0.5315    0.7248 H   0  0  0  0  0  0
    1.7012   -0.8008   -1.7899 H   0  0  0  0  0  0
    1.6265    0.9454   -1.9516 H   0  0  0  0  0  0
    3.8670    1.1262   -0.7898 H   0  0  0  0  0  0
    3.9409   -0.6233   -0.6792 H   0  0  0  0  0  0
    3.7821   -0.7494   -3.2123 H   0  0  0  0  0  0
    3.8469    1.0056   -3.2749 H   0  0  0  0  0  0
    6.0425   -0.8126   -2.1368 H   0  0  0  0  0  0
    6.0595   -0.0736   -3.7278 H   0  0  0  0  0  0
    6.0471    2.2129   -2.6463 H   0  0  0  0  0  0
    6.1269    1.4530   -1.0667 H   0  0  0  0  0  0
    8.2933    0.3470   -1.7028 H   0  0  0  0  0  0
    8.2340    1.1435   -3.2652 H   0  0  0  0  0  0
    8.2878    3.3887   -2.1084 H   0  0  0  0  0  0
    8.3628    2.6041   -0.5488 H   0  0  0  0  0  0
   10.5123    1.4603   -1.2534 H   0  0  0  0  0  0
   10.5366    2.4743   -2.6894 H   0  0  0  0  0  0
  1  2  1  0  0  0
  1 23  1  0  0  0
  1 24  1  0  0  0
  1 25  1  0  0  0
  2  3  1  0  0  0
  2 26  1  0  0  0
  2 27  1  0  0  0
  3  4  1  0  0  0
  3 28  1  0  0  0
  3 29  1  0  0  0
  4  5  1  0  0  0
  4 30  1  0  0  0
  4 31  1  0  0  0
  5  6  1  0  0  0
  5 32  1  0  0  0
  5 33  1  0  0  0
  6  7  1  0  0  0
  6 34  1  0  0  0
  6 35  1  0  0  0
  7  8  1  0  0  0
  7 36  1  0  0  0
  7 37  1  0  0  0
  8  9  1  0  0  0
  8 38  1  0  0  0
  8 39  1  0  0  0
  9 10  2  0  0  0
  9 40  1  0  0  0
 10 11  1  0  0  0
 10 41  1  0  0  0
 11 12  1  0  0  0
 11 42  1  0  0  0
 11 43  1  0  0  0
 12 13  1  0  0  0
 12 44  1  0  0  0
 12 45  1  0  0  0
 13 14  1  0  0  0
 13 46  1  0  0  0
 13 47  1  0  0  0
 14 15  1  0  0  0
 14 48  1  0  0  0
 14 49  1  0  0  0
 15 16  1  0  0  0
 15 50  1  0  0  0
 15 51  1  0  0  0
 16 17  1  0  0  0
 16 52  1  0  0  0
 16 53  1  0  0  0
 17 18  1  0  0  0
 17 54  1  0  0  0
 17 55  1  0  0  0
 18 19  1  0  0  0
 18 56  1  0  0  0
 18 57  1  0  0  0
 19 20  1  0  0  0
 19 58  1  0  0  0
 19 59  1  0  0  0
 20 21  2  0  0  0
 20 22  1  0  0  0
M  END
>  <s_lp_Force_Field> (1)
S-OPLS

>  <r_lp_Energy> (1)
7.301163

>  <b_lp_Chiralities_Consistent> (1)
1

>  <r_epik_Ionization_Penalty> (1)
  0.0049

>  <r_epik_Ionization_Penalty_Charging> (1)
  0.0049

>  <r_epik_Ionization_Penalty_Neutral> (1)
  0.0000

>  <r_epik_State_Penalty> (1)
  0.0035

>  <r_epik_Charging_Adjusted_Penalty> (1)
0.00839651679040807

>  <i_epik_Tot_Q> (1)
-1

>  <i_epik_Tot_abs_Q> (1)
1

>  <i_m_Spin_multiplicity> (1)
1

>  <s_j_Task> (1)
Single Point

>  <s_j_QM_Method> (1)
DFT(b3lyp-d3)

>  <s_j_QM_Basis> (1)
6-31g**

>  <i_j_Number_of_canonical_orbitals> (1)
515

>  <i_j_Geometry_convergence_category> (1)
1

>  <r_j_Gas_Phase_Energy> (1)
-935.019721025388

>  <r_j_Final_Energy> (1)
-935.019721025388

>  <r_j_HOMO> (1)
-0.00496269086722001

>  <r_j_LUMO> (1)
0.0792819590183605

>  <r_j_Polarizability> (1)
230.141137155225

>  <r_j_QM_Dipole_(debye)> (1)
43.0951736169775

>  <r_j_QM_Dipole_X_(debye)> (1)
-41.8173356756868

>  <r_j_QM_Dipole_Y_(debye)> (1)
-8.75563172109562

>  <r_j_QM_Dipole_Z_(debye)> (1)
-5.64299027368541

>  <r_j_Lowest_Frequency_(cm-1)> (1)
5.80052101167866

>  <r_j_Highest_Frequency_(cm-1)> (1)
3124.25938477185

>  <r_j_2nd_Lowest_Frequency_(cm-1)> (1)
13.1152749954291

>  <i_j_Num_Negative_Frequencies> (1)
0

>  <r_j_Zero_Point_Energy_(kcal/mol)> (1)
339.301588770485

>  <r_j_Entropy_(cal/mol/K)_298.15K_1.00E+00atm> (1)
174.6765620007

>  <r_j_Enthalpy_(kcal/mol)_298.15K_1.00E+00atm> (1)
17.0721405230992

>  <r_j_Free_Energy_(kcal/mol)_298.15K_1.00E+00atm> (1)
-35.0076764374096

>  <r_j_Internal_Energy_(kcal/mol)_298.15K_1.00E+00atm> (1)
16.4796549342719

>  <r_j_Heat_Capacity_(cal/mol/K)_298.15K_1.00E+00atm> (1)
97.5987329631019

>  <r_j_ln(Q)_298.15K_1.00E+00atm> (1)
59.0861231016629

>  <r_j_Total_Internal_Energy_(au)_298.15K_1.00E+00atm> (1)
-934.452747520263

>  <r_j_Total_Enthalpy_(au)_298.15K_1.00E+00atm> (1)
-934.451803334371

>  <r_j_Total_Free_Energy_(au)_298.15K_1.00E+00atm> (1)
-934.534797806089

$$$$
