14296_2,3,5,6-Tetramethylpyrazine
                    3D
 Schrodinger Suite 2021-3.
 22 22  0  0  1  0            999 V2000
   -0.0058   -0.1210   -0.0001 C   0  0  0  0  0  0
    1.5008   -0.0068    0.0000 C   0  0  0  0  0  0
    2.2211    1.2055    0.0000 C   0  0  0  0  0  0
    3.5598    1.1908    0.0000 N   0  0  0  0  0  0
    4.2126    0.0220    0.0000 C   0  0  0  0  0  0
    3.4923   -1.1903    0.0000 C   0  0  0  0  0  0
    2.1536   -1.1757    0.0000 N   0  0  0  0  0  0
    4.1125   -2.5681    0.0000 C   0  0  0  0  0  0
    5.7191    0.1361   -0.0001 C   0  0  0  0  0  0
    1.6009    2.5832    0.0000 C   0  0  0  0  0  0
   -0.5154    0.8425   -0.0001 H   0  0  0  0  0  0
   -0.3338   -0.6844    0.8794 H   0  0  0  0  0  0
   -0.3338   -0.6844   -0.8796 H   0  0  0  0  0  0
    5.2024   -2.5549    0.0000 H   0  0  0  0  0  0
    3.7745   -3.1256   -0.8795 H   0  0  0  0  0  0
    3.7745   -3.1256    0.8796 H   0  0  0  0  0  0
    6.2286   -0.8274    0.0000 H   0  0  0  0  0  0
    6.0472    0.6995    0.8794 H   0  0  0  0  0  0
    6.0471    0.6994   -0.8796 H   0  0  0  0  0  0
    0.5110    2.5700    0.0000 H   0  0  0  0  0  0
    1.9389    3.1407   -0.8795 H   0  0  0  0  0  0
    1.9388    3.1407    0.8796 H   0  0  0  0  0  0
  1  2  1  0  0  0
  1 11  1  0  0  0
  1 12  1  0  0  0
  1 13  1  0  0  0
  2  7  1  0  0  0
  2  3  2  0  0  0
  3  4  1  0  0  0
  3 10  1  0  0  0
  4  5  2  0  0  0
  5  6  1  0  0  0
  5  9  1  0  0  0
  6  7  2  0  0  0
  6  8  1  0  0  0
  8 14  1  0  0  0
  8 15  1  0  0  0
  8 16  1  0  0  0
  9 17  1  0  0  0
  9 18  1  0  0  0
  9 19  1  0  0  0
 10 20  1  0  0  0
 10 21  1  0  0  0
 10 22  1  0  0  0
M  END
>  <i_m_Spin_multiplicity> (1)
1

>  <s_j_Task> (1)
Single Point

>  <s_j_QM_Method> (1)
DFT(b3lyp-d3)

>  <s_j_QM_Basis> (1)
cc-pvtz(-f)

>  <i_j_Number_of_canonical_orbitals> (1)
335

>  <i_j_Geometry_convergence_category> (1)
3

>  <r_j_Gas_Phase_Energy> (1)
-421.742886544994

>  <r_j_Final_Energy> (1)
-421.742886544994

>  <r_j_HOMO> (1)
-0.243013367087456

>  <r_j_LUMO> (1)
-0.0494091166020668

>  <r_j_Polarizability> (1)
109.907188427698

>  <r_j_QM_Dipole_(debye)> (1)
0.00261571547644553

>  <r_j_QM_Dipole_X_(debye)> (1)
-0.00215722795617766

>  <r_j_QM_Dipole_Y_(debye)> (1)
-0.00147867941661386

>  <r_j_QM_Dipole_Z_(debye)> (1)
-4.29206440391862e-05

>  <r_j_Lowest_Frequency_(cm-1)> (1)
74.903179216923

>  <r_j_Highest_Frequency_(cm-1)> (1)
3109.45232389773

>  <r_j_2nd_Lowest_Frequency_(cm-1)> (1)
130.529065155756

>  <i_j_Num_Negative_Frequencies> (1)
0

>  <r_j_Zero_Point_Energy_(kcal/mol)> (1)
116.616360117259

>  <r_j_Entropy_(cal/mol/K)_298.15K_1.00E+00atm> (1)
95.6965759314983

>  <r_j_Enthalpy_(kcal/mol)_298.15K_1.00E+00atm> (1)
7.19269837409045

>  <r_j_Free_Energy_(kcal/mol)_298.15K_1.00E+00atm> (1)
-21.3392357398858

>  <r_j_Internal_Energy_(kcal/mol)_298.15K_1.00E+00atm> (1)
6.60021278526317

>  <r_j_Heat_Capacity_(cal/mol/K)_298.15K_1.00E+00atm> (1)
39.1581488331752

>  <r_j_ln(Q)_298.15K_1.00E+00atm> (1)
36.0164637626431

>  <r_j_Total_Internal_Energy_(au)_298.15K_1.00E+00atm> (1)
-421.546528436004

>  <r_j_Total_Enthalpy_(au)_298.15K_1.00E+00atm> (1)
-421.545584250111

>  <r_j_Total_Free_Energy_(au)_298.15K_1.00E+00atm> (1)
-421.591052781628

>  <r_lp_tautomer_probability> (1)
1

>  <r_epik_Ionization_Penalty> (1)
  0.0000

>  <r_epik_Ionization_Penalty_Charging> (1)
  0.0000

>  <r_epik_Ionization_Penalty_Neutral> (1)
  0.0000

>  <r_epik_State_Penalty> (1)
  0.0000

>  <r_epik_Charging_Adjusted_Penalty> (1)
0

>  <i_epik_Tot_Q> (1)
0

>  <i_epik_Tot_abs_Q> (1)
0

>  <s_lp_Force_Field> (1)
S-OPLS

>  <r_lp_Energy> (1)
16.8046

>  <b_lp_Chiralities_Consistent> (1)
1

$$$$
