143127_(2-methylbutyl)cyclohexane
                    3D
 Schrodinger Suite 2021-3.
 33 33  0  0  1  0            999 V2000
   -0.8228    1.3507    0.0278 C   0  0  0  0  0  0
   -0.0838    0.0146   -0.1049 C   0  0  0  0  0  0
    1.4549    0.1189   -0.0780 C   0  0  2  0  0  0
    1.9946    0.9105   -1.2779 C   0  0  0  0  0  0
    2.0654   -1.2959   -0.0014 C   0  0  0  0  0  0
    3.6003   -1.3994    0.0400 C   0  0  0  0  0  0
    4.2236   -0.6108    1.2072 C   0  0  0  0  0  0
    5.7516   -0.7661    1.2607 C   0  0  0  0  0  0
    6.1676   -2.2427    1.3231 C   0  0  0  0  0  0
    5.5640   -3.0326    0.1526 C   0  0  0  0  0  0
    4.0371   -2.8764    0.1073 C   0  0  0  0  0  0
   -1.9053    1.1962    0.0837 H   0  0  0  0  0  0
   -0.6318    2.0125   -0.8228 H   0  0  0  0  0  0
   -0.5153    1.8814    0.9366 H   0  0  0  0  0  0
   -0.4023   -0.6477    0.7112 H   0  0  0  0  0  0
   -0.3894   -0.4844   -1.0358 H   0  0  0  0  0  0
    1.7266    0.6626    0.8387 H   0  0  0  0  0  0
    1.7672    0.3900   -2.2166 H   0  0  0  0  0  0
    3.0797    1.0379   -1.2227 H   0  0  0  0  0  0
    1.5546    1.9103   -1.3350 H   0  0  0  0  0  0
    1.6630   -1.7994    0.8900 H   0  0  0  0  0  0
    1.7026   -1.8754   -0.8637 H   0  0  0  0  0  0
    4.0063   -0.9853   -0.8953 H   0  0  0  0  0  0
    3.9638    0.4514    1.1320 H   0  0  0  0  0  0
    3.7861   -0.9725    2.1502 H   0  0  0  0  0  0
    6.1893   -0.3076    0.3622 H   0  0  0  0  0  0
    6.1570   -0.2173    2.1193 H   0  0  0  0  0  0
    7.2605   -2.3330    1.3243 H   0  0  0  0  0  0
    5.8149   -2.6766    2.2699 H   0  0  0  0  0  0
    5.9931   -2.6639   -0.7902 H   0  0  0  0  0  0
    5.8347   -4.0928    0.2255 H   0  0  0  0  0  0
    3.6018   -3.3324    1.0093 H   0  0  0  0  0  0
    3.6231   -3.4255   -0.7481 H   0  0  0  0  0  0
  1  2  1  0  0  0
  1 12  1  0  0  0
  1 13  1  0  0  0
  1 14  1  0  0  0
  2  3  1  0  0  0
  2 15  1  0  0  0
  2 16  1  0  0  0
  3  4  1  0  0  0
  3  5  1  0  0  0
  3 17  1  0  0  0
  4 18  1  0  0  0
  4 19  1  0  0  0
  4 20  1  0  0  0
  5  6  1  0  0  0
  5 21  1  0  0  0
  5 22  1  0  0  0
  6 11  1  0  0  0
  6  7  1  0  0  0
  6 23  1  0  0  0
  7  8  1  0  0  0
  7 24  1  0  0  0
  7 25  1  0  0  0
  8  9  1  0  0  0
  8 26  1  0  0  0
  8 27  1  0  0  0
  9 10  1  0  0  0
  9 28  1  0  0  0
  9 29  1  0  0  0
 10 11  1  0  0  0
 10 30  1  0  0  0
 10 31  1  0  0  0
 11 32  1  0  0  0
 11 33  1  0  0  0
M  END
> <i_m_Spin_multiplicity>
1

> <s_j_Task>
Single Point

> <s_j_QM_Method>
DFT(b3lyp-d3)

> <s_j_QM_Basis>
cc-pvtz(-f)

> <i_j_Number_of_canonical_orbitals>
446

> <i_j_Geometry_convergence_category>
3

> <r_j_Gas_Phase_Energy>
-432.620860337832

> <r_j_Final_Energy>
-432.620860337832

> <r_j_HOMO>
-0.296020378235001

> <r_j_LUMO>
0.0201229732446337

> <r_j_Polarizability>
129.881891801482

> <r_j_QM_Dipole_(debye)>
0.0799177203126599

> <r_j_QM_Dipole_X_(debye)>
0.0674532973018218

> <r_j_QM_Dipole_Y_(debye)>
0.00411847473676276

> <r_j_QM_Dipole_Z_(debye)>
0.0426606712198393

> <r_j_Lowest_Frequency_(cm-1)>
78.7785376933163

> <r_j_Highest_Frequency_(cm-1)>
3059.67479911221

> <r_j_2nd_Lowest_Frequency_(cm-1)>
98.7534971075085

> <i_j_Num_Negative_Frequencies>
0

> <r_j_Zero_Point_Energy_(kcal/mol)>
195.24772139544

> <r_j_Entropy_(cal/mol/K)_298.15K_1.00E+00atm>
104.065299376701

> <r_j_Enthalpy_(kcal/mol)_298.15K_1.00E+00atm>
7.98531960903252

> <r_j_Free_Energy_(kcal/mol)_298.15K_1.00E+00atm>
-23.041749400131

> <r_j_Internal_Energy_(kcal/mol)_298.15K_1.00E+00atm>
7.39283402020525

> <r_j_Heat_Capacity_(cal/mol/K)_298.15K_1.00E+00atm>
47.4988641507016

> <r_j_ln(Q)_298.15K_1.00E+00atm>
38.8899744308352

> <r_j_Total_Internal_Energy_(au)_298.15K_1.00E+00atm>
-432.297932055307

> <r_j_Total_Enthalpy_(au)_298.15K_1.00E+00atm>
-432.296987869414

> <r_j_Total_Free_Energy_(au)_298.15K_1.00E+00atm>
-432.346432651513

> <r_lp_tautomer_probability>
1

> <r_epik_Ionization_Penalty>
  0.0000

> <r_epik_Ionization_Penalty_Charging>
  0.0000

> <r_epik_Ionization_Penalty_Neutral>
  0.0000

> <r_epik_State_Penalty>
  0.0000

> <r_epik_Charging_Adjusted_Penalty>
0

> <i_epik_Tot_Q>
0

> <i_epik_Tot_abs_Q>
0

> <s_lp_Force_Field>
S-OPLS

> <r_lp_Energy>
10.7791

> <b_lp_Chiralities_Consistent>
1

$$$$
