14478_2,5,5-trimethylheptane
                    3D
 Schrodinger Suite 2021-3.
 32 31  0  0  1  0            999 V2000
   -2.1528   -0.6624    1.4860 C   0  0  0  0  0  0
   -0.6352   -0.6686    1.2630 C   0  0  0  0  0  0
   -0.1260   -0.0159   -0.0495 C   0  0  0  0  0  0
   -0.7100   -0.7353   -1.2814 C   0  0  0  0  0  0
   -0.5372    1.4694   -0.0961 C   0  0  0  0  0  0
    1.4270   -0.0681   -0.0882 C   0  0  0  0  0  0
    2.0750   -1.4571   -0.1843 C   0  0  0  0  0  0
    3.6092   -1.4531   -0.0320 C   0  0  0  0  0  0
    4.3064   -0.6366   -1.1302 C   0  0  0  0  0  0
    4.1465   -2.8913   -0.0120 C   0  0  0  0  0  0
   -2.4003   -1.1597    2.4297 H   0  0  0  0  0  0
   -2.6833   -1.1935    0.6893 H   0  0  0  0  0  0
   -2.5574    0.3531    1.5372 H   0  0  0  0  0  0
   -0.1498   -0.1605    2.1078 H   0  0  0  0  0  0
   -0.2901   -1.7088    1.2966 H   0  0  0  0  0  0
   -0.2546   -0.3549   -2.2030 H   0  0  0  0  0  0
   -1.7903   -0.5786   -1.3609 H   0  0  0  0  0  0
   -0.5333   -1.8151   -1.2415 H   0  0  0  0  0  0
   -0.1432    1.9529   -0.9973 H   0  0  0  0  0  0
   -0.1477    2.0136    0.7722 H   0  0  0  0  0  0
   -1.6245    1.5912   -0.1094 H   0  0  0  0  0  0
    1.7576    0.5367   -0.9421 H   0  0  0  0  0  0
    1.8102    0.4407    0.8086 H   0  0  0  0  0  0
    1.6600   -2.1162    0.5880 H   0  0  0  0  0  0
    1.8230   -1.9205   -1.1480 H   0  0  0  0  0  0
    3.8464   -0.9892    0.9377 H   0  0  0  0  0  0
    4.0575   -1.0336   -2.1225 H   0  0  0  0  0  0
    5.3954   -0.6802   -1.0190 H   0  0  0  0  0  0
    4.0143    0.4175   -1.1090 H   0  0  0  0  0  0
    3.9339   -3.3980   -0.9617 H   0  0  0  0  0  0
    3.6859   -3.4799    0.7890 H   0  0  0  0  0  0
    5.2316   -2.9099    0.1377 H   0  0  0  0  0  0
  1  2  1  0  0  0
  1 11  1  0  0  0
  1 12  1  0  0  0
  1 13  1  0  0  0
  2  3  1  0  0  0
  2 14  1  0  0  0
  2 15  1  0  0  0
  3  4  1  0  0  0
  3  5  1  0  0  0
  3  6  1  0  0  0
  4 16  1  0  0  0
  4 17  1  0  0  0
  4 18  1  0  0  0
  5 19  1  0  0  0
  5 20  1  0  0  0
  5 21  1  0  0  0
  6  7  1  0  0  0
  6 22  1  0  0  0
  6 23  1  0  0  0
  7  8  1  0  0  0
  7 24  1  0  0  0
  7 25  1  0  0  0
  8  9  1  0  0  0
  8 10  1  0  0  0
  8 26  1  0  0  0
  9 27  1  0  0  0
  9 28  1  0  0  0
  9 29  1  0  0  0
 10 30  1  0  0  0
 10 31  1  0  0  0
 10 32  1  0  0  0
M  END
>  <i_m_Spin_multiplicity> (1)
1

>  <s_j_Task> (1)
Single Point

>  <s_j_QM_Method> (1)
DFT(b3lyp-d3)

>  <s_j_QM_Basis> (1)
cc-pvtz(-f)

>  <i_j_Number_of_canonical_orbitals> (1)
425

>  <i_j_Geometry_convergence_category> (1)
1

>  <r_j_Gas_Phase_Energy> (1)
-394.499744759627

>  <r_j_Final_Energy> (1)
-394.499744759627

>  <r_j_HOMO> (1)
-0.302885956577537

>  <r_j_LUMO> (1)
0.0214406626782592

>  <r_j_Polarizability> (1)
122.625304333942

>  <r_j_QM_Dipole_(debye)> (1)
0.118463870554876

>  <r_j_QM_Dipole_X_(debye)> (1)
0.0165904118827601

>  <r_j_QM_Dipole_Y_(debye)> (1)
-0.0105641793219404

>  <r_j_QM_Dipole_Z_(debye)> (1)
0.116819711417452

>  <r_j_Lowest_Frequency_(cm-1)> (1)
71.6822249847743

>  <r_j_Highest_Frequency_(cm-1)> (1)
3059.73175346074

>  <r_j_2nd_Lowest_Frequency_(cm-1)> (1)
94.1414135223945

>  <i_j_Num_Negative_Frequencies> (1)
0

>  <r_j_Zero_Point_Energy_(kcal/mol)> (1)
189.226898027981

>  <r_j_Entropy_(cal/mol/K)_298.15K_1.00E+00atm> (1)
106.16511289939

>  <r_j_Enthalpy_(kcal/mol)_298.15K_1.00E+00atm> (1)
8.46293037913983

>  <r_j_Free_Energy_(kcal/mol)_298.15K_1.00E+00atm> (1)
-23.1901980318132

>  <r_j_Internal_Energy_(kcal/mol)_298.15K_1.00E+00atm> (1)
7.87044479031256

>  <r_j_Heat_Capacity_(cal/mol/K)_298.15K_1.00E+00atm> (1)
49.4843138014533

>  <r_j_ln(Q)_298.15K_1.00E+00atm> (1)
39.140526738742

>  <r_j_Total_Internal_Energy_(au)_298.15K_1.00E+00atm> (1)
-394.185650148723

>  <r_j_Total_Enthalpy_(au)_298.15K_1.00E+00atm> (1)
-394.18470596283

>  <r_j_Total_Free_Energy_(au)_298.15K_1.00E+00atm> (1)
-394.235148434098

>  <r_lp_tautomer_probability> (1)
1

>  <r_epik_Ionization_Penalty> (1)
  0.0000

>  <r_epik_Ionization_Penalty_Charging> (1)
  0.0000

>  <r_epik_Ionization_Penalty_Neutral> (1)
  0.0000

>  <r_epik_State_Penalty> (1)
  0.0000

>  <r_epik_Charging_Adjusted_Penalty> (1)
0

>  <i_epik_Tot_Q> (1)
0

>  <i_epik_Tot_abs_Q> (1)
0

>  <s_lp_Force_Field> (1)
S-OPLS

>  <r_lp_Energy> (1)
8.64246

>  <b_lp_Chiralities_Consistent> (1)
1

$$$$
