14527_3-phenylpentane
                    3D
 Schrodinger Suite 2021-3.
 27 27  0  0  1  0            999 V2000
   -0.6335    1.4357   -0.0561 C   0  0  0  0  0  0
   -0.0413    0.0244   -0.0223 C   0  0  0  0  0  0
    1.5012    0.0008    0.0539 C   0  0  0  0  0  0
    2.0371   -1.4458   -0.0223 C   0  0  0  0  0  0
    3.5650   -1.5342   -0.0576 C   0  0  0  0  0  0
    2.0164    0.7300    1.2859 C   0  0  0  0  0  0
    2.8210    1.8684    1.1660 C   0  0  0  0  0  0
    3.2951    2.5398    2.2943 C   0  0  0  0  0  0
    2.9697    2.0799    3.5695 C   0  0  0  0  0  0
    2.1675    0.9451    3.7055 C   0  0  0  0  0  0
    1.6972    0.2793    2.5751 C   0  0  0  0  0  0
   -1.7244    1.4052   -0.1396 H   0  0  0  0  0  0
   -0.2476    2.0029   -0.9111 H   0  0  0  0  0  0
   -0.3782    1.9923    0.8508 H   0  0  0  0  0  0
   -0.4516   -0.5276    0.8337 H   0  0  0  0  0  0
   -0.3526   -0.5287   -0.9180 H   0  0  0  0  0  0
    1.8809    0.5375   -0.8279 H   0  0  0  0  0  0
    1.6541   -2.0166    0.8340 H   0  0  0  0  0  0
    1.6185   -1.9236   -0.9176 H   0  0  0  0  0  0
    3.8995   -2.5731   -0.1407 H   0  0  0  0  0  0
    4.0057   -1.1076    0.8486 H   0  0  0  0  0  0
    3.9705   -0.9821   -0.9134 H   0  0  0  0  0  0
    3.0792    2.2331    0.1748 H   0  0  0  0  0  0
    3.9185    3.4217    2.1754 H   0  0  0  0  0  0
    3.3367    2.5995    4.4500 H   0  0  0  0  0  0
    1.9079    0.5784    4.6948 H   0  0  0  0  0  0
    1.0737   -0.6025    2.6966 H   0  0  0  0  0  0
  1  2  1  0  0  0
  1 12  1  0  0  0
  1 13  1  0  0  0
  1 14  1  0  0  0
  2  3  1  0  0  0
  2 15  1  0  0  0
  2 16  1  0  0  0
  3  4  1  0  0  0
  3  6  1  0  0  0
  3 17  1  0  0  0
  4  5  1  0  0  0
  4 18  1  0  0  0
  4 19  1  0  0  0
  5 20  1  0  0  0
  5 21  1  0  0  0
  5 22  1  0  0  0
  6 11  1  0  0  0
  6  7  2  0  0  0
  7  8  1  0  0  0
  7 23  1  0  0  0
  8  9  2  0  0  0
  8 24  1  0  0  0
  9 10  1  0  0  0
  9 25  1  0  0  0
 10 11  2  0  0  0
 10 26  1  0  0  0
 11 27  1  0  0  0
M  END
>  <i_m_Spin_multiplicity> (1)
1

>  <s_j_Task> (1)
Single Point

>  <s_j_QM_Method> (1)
DFT(b3lyp-d3)

>  <s_j_QM_Basis> (1)
cc-pvtz(-f)

>  <i_j_Number_of_canonical_orbitals> (1)
389

>  <i_j_Geometry_convergence_category> (1)
3

>  <r_j_Gas_Phase_Energy> (1)
-428.981668844981

>  <r_j_Final_Energy> (1)
-428.981668844981

>  <r_j_HOMO> (1)
-0.250318524222663

>  <r_j_LUMO> (1)
-0.0184829376628041

>  <r_j_Polarizability> (1)
124.493848332192

>  <r_j_QM_Dipole_(debye)> (1)
0.273087789300202

>  <r_j_QM_Dipole_X_(debye)> (1)
-0.122176031587554

>  <r_j_QM_Dipole_Y_(debye)> (1)
-0.172867462280535

>  <r_j_QM_Dipole_Z_(debye)> (1)
-0.172530572522891

>  <r_j_Lowest_Frequency_(cm-1)> (1)
77.0846209626218

>  <r_j_Highest_Frequency_(cm-1)> (1)
3145.03543687017

>  <r_j_2nd_Lowest_Frequency_(cm-1)> (1)
92.9262213688969

>  <i_j_Num_Negative_Frequencies> (1)
0

>  <r_j_Zero_Point_Energy_(kcal/mol)> (1)
151.423955168921

>  <r_j_Entropy_(cal/mol/K)_298.15K_1.00E+00atm> (1)
99.675213911076

>  <r_j_Enthalpy_(kcal/mol)_298.15K_1.00E+00atm> (1)
7.30150736141556

>  <r_j_Free_Energy_(kcal/mol)_298.15K_1.00E+00atm> (1)
-22.4166576661718

>  <r_j_Internal_Energy_(kcal/mol)_298.15K_1.00E+00atm> (1)
6.70902177258828

>  <r_j_Heat_Capacity_(cal/mol/K)_298.15K_1.00E+00atm> (1)
42.3539673534587

>  <r_j_ln(Q)_298.15K_1.00E+00atm> (1)
37.834941623714

>  <r_j_Total_Internal_Energy_(au)_298.15K_1.00E+00atm> (1)
-428.729667903957

>  <r_j_Total_Enthalpy_(au)_298.15K_1.00E+00atm> (1)
-428.728723718065

>  <r_j_Total_Free_Energy_(au)_298.15K_1.00E+00atm> (1)
-428.776082628884

>  <r_lp_tautomer_probability> (1)
1

>  <r_epik_Ionization_Penalty> (1)
  0.0000

>  <r_epik_Ionization_Penalty_Charging> (1)
  0.0000

>  <r_epik_Ionization_Penalty_Neutral> (1)
  0.0000

>  <r_epik_State_Penalty> (1)
  0.0000

>  <r_epik_Charging_Adjusted_Penalty> (1)
0

>  <i_epik_Tot_Q> (1)
0

>  <i_epik_Tot_abs_Q> (1)
0

>  <s_lp_Force_Field> (1)
S-OPLS

>  <r_lp_Energy> (1)
11.4704

>  <b_lp_Chiralities_Consistent> (1)
1

$$$$
