1486_2,4-Dichlorophenoxyacetic acid
                    3D
 Schrodinger Suite 2021-3.
 18 18  0  0  1  0            999 V2000
   -0.4336    3.7104   -0.1592 C   0  0  0  0  0  0
    0.1870    2.4627   -0.1413 C   0  0  0  0  0  0
   -0.5520    1.2698   -0.0030 C   0  0  0  0  0  0
   -1.9585    1.4001    0.1174 C   0  0  0  0  0  0
   -2.5867    2.6391    0.1006 C   0  0  0  0  0  0
   -1.8150    3.7917   -0.0382 C   0  0  0  0  0  0
   -2.6160    5.3727   -0.0603 Cl  0  0  0  0  0  0
   -2.9436   -0.0415    0.2925 Cl  0  0  0  0  0  0
   -0.0332    0.0454    0.0225 O   0  0  0  0  0  0
    1.4109   -0.1170   -0.1019 C   0  0  0  0  0  0
    1.8815   -1.6190   -0.0543 C   0  0  0  0  0  0
    3.1297   -1.6636   -0.1735 O   0  0  0  0  0  0
    1.0172   -2.4999    0.0876 O   0  5  0  0  0  0
    0.1586    4.6129   -0.2673 H   0  0  0  0  0  0
    1.2632    2.4042   -0.2367 H   0  0  0  0  0  0
   -3.6640    2.6997    0.1948 H   0  0  0  0  0  0
    1.7344    0.3223   -1.0540 H   0  0  0  0  0  0
    1.8987    0.4281    0.7161 H   0  0  0  0  0  0
  1  6  1  0  0  0
  1  2  2  0  0  0
  1 14  1  0  0  0
  2  3  1  0  0  0
  2 15  1  0  0  0
  3  4  2  0  0  0
  3  9  1  0  0  0
  4  5  1  0  0  0
  4  8  1  0  0  0
  5  6  2  0  0  0
  5 16  1  0  0  0
  6  7  1  0  0  0
  9 10  1  0  0  0
 10 11  1  0  0  0
 10 17  1  0  0  0
 10 18  1  0  0  0
 11 12  2  0  0  0
 11 13  1  0  0  0
M  END
>  <i_m_Spin_multiplicity> (1)
1

>  <s_j_Task> (1)
Single Point

>  <s_j_QM_Method> (1)
DFT(b3lyp-d3)

>  <s_j_QM_Basis> (1)
cc-pvtz(-f)

>  <i_j_Number_of_canonical_orbitals> (1)
348

>  <i_j_Geometry_convergence_category> (1)
3

>  <r_j_Gas_Phase_Energy> (1)
-1454.24460202365

>  <r_j_Final_Energy> (1)
-1454.24460202365

>  <r_j_HOMO> (1)
-0.0670580784204797

>  <r_j_LUMO> (1)
0.0767889818322602

>  <r_j_Polarizability> (1)
133.193894167599

>  <r_j_QM_Dipole_(debye)> (1)
14.8358011538486

>  <r_j_QM_Dipole_X_(debye)> (1)
-8.23103737356028

>  <r_j_QM_Dipole_Y_(debye)> (1)
12.3430490088527

>  <r_j_QM_Dipole_Z_(debye)> (1)
0.0126805618863252

>  <r_j_Lowest_Frequency_(cm-1)> (1)
55.1273481340232

>  <r_j_Highest_Frequency_(cm-1)> (1)
3180.27222505023

>  <r_j_2nd_Lowest_Frequency_(cm-1)> (1)
77.7702374780413

>  <i_j_Num_Negative_Frequencies> (1)
0

>  <r_j_Zero_Point_Energy_(kcal/mol)> (1)
72.0280894281233

>  <r_j_Entropy_(cal/mol/K)_298.15K_1.00E+00atm> (1)
107.441313177131

>  <r_j_Enthalpy_(kcal/mol)_298.15K_1.00E+00atm> (1)
7.81299033933355

>  <r_j_Free_Energy_(kcal/mol)_298.15K_1.00E+00atm> (1)
-24.2206371844282

>  <r_j_Internal_Energy_(kcal/mol)_298.15K_1.00E+00atm> (1)
7.22050475050628

>  <r_j_Heat_Capacity_(cal/mol/K)_298.15K_1.00E+00atm> (1)
42.0948772025718

>  <r_j_ln(Q)_298.15K_1.00E+00atm> (1)
40.8797068505394

>  <r_j_Total_Internal_Energy_(au)_298.15K_1.00E+00atm> (1)
-1454.11831134921

>  <r_j_Total_Enthalpy_(au)_298.15K_1.00E+00atm> (1)
-1454.11736716332

>  <r_j_Total_Free_Energy_(au)_298.15K_1.00E+00atm> (1)
-1454.16841599853

>  <r_lp_tautomer_probability> (1)
1

>  <r_epik_Ionization_Penalty> (1)
  0.0001

>  <r_epik_Ionization_Penalty_Charging> (1)
  0.0001

>  <r_epik_Ionization_Penalty_Neutral> (1)
  0.0000

>  <r_epik_State_Penalty> (1)
  0.0000

>  <r_epik_Charging_Adjusted_Penalty> (1)
5.4195e-05

>  <i_epik_Tot_Q> (1)
-1

>  <i_epik_Tot_abs_Q> (1)
1

>  <s_lp_Force_Field> (1)
S-OPLS

>  <r_lp_Energy> (1)
24.1398

>  <b_lp_Chiralities_Consistent> (1)
1

$$$$
