14896_Beta-pinene
                    3D
 Schrodinger Suite 2021-3.
 26 27  0  0  1  0            999 V2000
   -0.0147   -0.0089   -0.0046 C   0  0  0  0  0  0
    1.5197    0.0340    0.0351 C   0  0  0  0  0  0
    2.1441    0.1881   -1.3965 C   0  0  0  0  0  0
    3.6278    0.5853   -1.3156 C   0  0  0  0  0  0
    4.4523   -0.4821   -0.5375 C   0  0  0  0  0  0
    3.6043   -1.3207    0.4121 C   0  0  0  0  0  0
    4.0982   -1.9077    1.5050 C   0  0  0  0  0  0
    2.1538   -1.4135    0.0101 C   0  0  0  0  0  0
    2.0353   -1.3565   -1.5444 C   0  0  0  0  0  0
    1.9496    0.9917    1.1473 C   0  0  0  0  0  0
   -0.4163    0.9943   -0.1888 H   0  0  0  0  0  0
   -0.4131   -0.3559    0.9557 H   0  0  0  0  0  0
   -0.4081   -0.6678   -0.7828 H   0  0  0  0  0  0
    1.5982    0.8194   -2.1072 H   0  0  0  0  0  0
    4.0351    0.6914   -2.3275 H   0  0  0  0  0  0
    3.7193    1.5684   -0.8409 H   0  0  0  0  0  0
    4.9023   -1.1681   -1.2660 H   0  0  0  0  0  0
    5.2896   -0.0233   -0.0024 H   0  0  0  0  0  0
    5.1389   -1.7919    1.7963 H   0  0  0  0  0  0
    3.4777   -2.5313    2.1428 H   0  0  0  0  0  0
    1.6217   -2.2009    0.5543 H   0  0  0  0  0  0
    1.0576   -1.6851   -1.8997 H   0  0  0  0  0  0
    2.8036   -1.8685   -2.1315 H   0  0  0  0  0  0
    3.0309    1.0297    1.2893 H   0  0  0  0  0  0
    1.5123    0.6802    2.1030 H   0  0  0  0  0  0
    1.5962    2.0079    0.9357 H   0  0  0  0  0  0
  1  2  1  0  0  0
  1 11  1  0  0  0
  1 12  1  0  0  0
  1 13  1  0  0  0
  2  8  1  0  0  0
  2  3  1  0  0  0
  2 10  1  0  0  0
  3  9  1  0  0  0
  3  4  1  0  0  0
  3 14  1  0  0  0
  4  5  1  0  0  0
  4 15  1  0  0  0
  4 16  1  0  0  0
  5  6  1  0  0  0
  5 17  1  0  0  0
  5 18  1  0  0  0
  6  7  2  0  0  0
  6  8  1  0  0  0
  7 19  1  0  0  0
  7 20  1  0  0  0
  8  9  1  0  0  0
  8 21  1  0  0  0
  9 22  1  0  0  0
  9 23  1  0  0  0
 10 24  1  0  0  0
 10 25  1  0  0  0
 10 26  1  0  0  0
M  END
>  <i_m_Spin_multiplicity> (1)
1

>  <s_j_Task> (1)
Single Point

>  <s_j_QM_Method> (1)
DFT(b3lyp-d3)

>  <s_j_QM_Basis> (1)
cc-pvtz(-f)

>  <i_j_Number_of_canonical_orbitals> (1)
369

>  <i_j_Geometry_convergence_category> (1)
0

>  <r_j_Gas_Phase_Energy> (1)
-390.804698616438

>  <r_j_Final_Energy> (1)
-390.804698616438

>  <r_j_HOMO> (1)
-0.246313055037635

>  <r_j_LUMO> (1)
0.00336728541473269

>  <r_j_Polarizability> (1)
111.582155849574

>  <r_j_QM_Dipole_(debye)> (1)
0.689974097537706

>  <r_j_QM_Dipole_X_(debye)> (1)
-0.199626721602451

>  <r_j_QM_Dipole_Y_(debye)> (1)
0.391399740493022

>  <r_j_QM_Dipole_Z_(debye)> (1)
-0.53199593084649

>  <r_j_Lowest_Frequency_(cm-1)> (1)
138.152210000314

>  <r_j_Highest_Frequency_(cm-1)> (1)
3163.63119225025

>  <r_j_2nd_Lowest_Frequency_(cm-1)> (1)
193.193076532623

>  <i_j_Num_Negative_Frequencies> (1)
0

>  <r_j_Zero_Point_Energy_(kcal/mol)> (1)
147.78878485353

>  <r_j_Entropy_(cal/mol/K)_298.15K_1.00E+00atm> (1)
90.5660663614147

>  <r_j_Enthalpy_(kcal/mol)_298.15K_1.00E+00atm> (1)
6.3448353823883

>  <r_j_Free_Energy_(kcal/mol)_298.15K_1.00E+00atm> (1)
-20.6574373032675

>  <r_j_Internal_Energy_(kcal/mol)_298.15K_1.00E+00atm> (1)
5.75234979356103

>  <r_j_Heat_Capacity_(cal/mol/K)_298.15K_1.00E+00atm> (1)
39.0624324773026

>  <r_j_ln(Q)_298.15K_1.00E+00atm> (1)
34.8657211125682

>  <r_j_Total_Internal_Energy_(au)_298.15K_1.00E+00atm> (1)
-390.560015241943

>  <r_j_Total_Enthalpy_(au)_298.15K_1.00E+00atm> (1)
-390.559071056051

>  <r_j_Total_Free_Energy_(au)_298.15K_1.00E+00atm> (1)
-390.602101916901

>  <r_lp_tautomer_probability> (1)
1

>  <r_epik_Ionization_Penalty> (1)
  0.0000

>  <r_epik_Ionization_Penalty_Charging> (1)
  0.0000

>  <r_epik_Ionization_Penalty_Neutral> (1)
  0.0000

>  <r_epik_State_Penalty> (1)
  0.0000

>  <r_epik_Charging_Adjusted_Penalty> (1)
0

>  <i_epik_Tot_Q> (1)
0

>  <i_epik_Tot_abs_Q> (1)
0

>  <s_lp_Force_Field> (1)
S-OPLS

>  <r_lp_Energy> (1)
28.9775

>  <b_lp_Chiralities_Consistent> (1)
1

$$$$
