14900_Glycerol Monopalmitate
                    3D
 Schrodinger Suite 2021-3.
 61 60  0  0  1  0            999 V2000
   -4.5967    8.9134   -2.3354 C   0  0  0  0  0  0
   -3.9035    7.5481   -2.3561 C   0  0  0  0  0  0
   -4.6677    6.4711   -1.5765 C   0  0  0  0  0  0
   -3.9721    5.1054   -1.5954 C   0  0  0  0  0  0
   -4.7252    4.0232   -0.8098 C   0  0  0  0  0  0
   -4.0840    2.6282   -0.8865 C   0  0  0  0  0  0
   -2.7043    2.5293   -0.2231 C   0  0  0  0  0  0
   -2.0801    1.1325   -0.3198 C   0  0  0  0  0  0
   -0.6963    1.0466    0.3343 C   0  0  0  0  0  0
   -0.0182   -0.3176    0.1659 C   0  0  0  0  0  0
    1.3678   -0.3863    0.8172 C   0  0  0  0  0  0
    2.0901   -1.7181    0.5849 C   0  0  0  0  0  0
    3.4761   -1.7692    1.2415 C   0  0  0  0  0  0
    4.2280   -3.0934    1.0507 C   0  0  0  0  0  0
    4.6055   -3.3788   -0.4057 C   0  0  0  0  0  0
    5.4915   -4.5987   -0.5493 C   0  0  0  0  0  0
    5.9719   -5.2377    0.3607 O   0  0  0  0  0  0
    5.7016   -4.8926   -1.8563 O   0  0  0  0  0  0
    6.5634   -6.0213   -2.1092 C   0  0  0  0  0  0
    6.6162   -6.2186   -3.6157 C   0  0  0  0  0  0
    5.2568   -6.5877   -4.2018 C   0  0  0  0  0  0
    5.4845   -6.8318   -5.5920 O   0  0  0  0  0  0
    7.5487   -7.2635   -3.8408 O   0  0  0  0  0  0
   -4.0297    9.6616   -2.8992 H   0  0  0  0  0  0
   -4.7087    9.2829   -1.3095 H   0  0  0  0  0  0
   -5.5991    8.8533   -2.7749 H   0  0  0  0  0  0
   -3.7738    7.2168   -3.3956 H   0  0  0  0  0  0
   -2.8909    7.6434   -1.9405 H   0  0  0  0  0  0
   -4.7975    6.8000   -0.5352 H   0  0  0  0  0  0
   -5.6814    6.3722   -1.9907 H   0  0  0  0  0  0
   -3.8501    4.7745   -2.6372 H   0  0  0  0  0  0
   -2.9569    5.2209   -1.1940 H   0  0  0  0  0  0
   -4.8069    4.3293    0.2431 H   0  0  0  0  0  0
   -5.7546    3.9638   -1.1887 H   0  0  0  0  0  0
   -4.7559    1.8973   -0.4166 H   0  0  0  0  0  0
   -4.0001    2.3283   -1.9412 H   0  0  0  0  0  0
   -2.0170    3.2518   -0.6819 H   0  0  0  0  0  0
   -2.7893    2.8210    0.8339 H   0  0  0  0  0  0
   -2.7511    0.3944    0.1423 H   0  0  0  0  0  0
   -1.9990    0.8468   -1.3785 H   0  0  0  0  0  0
   -0.0469    1.8242   -0.0933 H   0  0  0  0  0  0
   -0.7838    1.2825    1.4045 H   0  0  0  0  0  0
   -0.6607   -1.1033    0.5884 H   0  0  0  0  0  0
    0.0727   -0.5449   -0.9061 H   0  0  0  0  0  0
    1.9905    0.4322    0.4282 H   0  0  0  0  0  0
    1.2726   -0.2053    1.8974 H   0  0  0  0  0  0
    1.4752   -2.5435    0.9719 H   0  0  0  0  0  0
    2.1792   -1.8869   -0.4968 H   0  0  0  0  0  0
    4.0905   -0.9435    0.8537 H   0  0  0  0  0  0
    3.3638   -1.5816    2.3174 H   0  0  0  0  0  0
    5.1445   -3.0899    1.6496 H   0  0  0  0  0  0
    3.6245   -3.9252    1.4351 H   0  0  0  0  0  0
    3.7261   -3.5250   -1.0422 H   0  0  0  0  0  0
    5.1470   -2.5288   -0.8433 H   0  0  0  0  0  0
    7.5646   -5.8276   -1.7142 H   0  0  0  0  0  0
    6.1733   -6.9132   -1.6087 H   0  0  0  0  0  0
    6.9482   -5.2801   -4.0899 H   0  0  0  0  0  0
    4.8865   -7.4910   -3.6928 H   0  0  0  0  0  0
    4.5399   -5.7717   -4.0395 H   0  0  0  0  0  0
    4.7067   -7.2670   -5.9604 H   0  0  0  0  0  0
    7.4232   -7.5266   -4.7648 H   0  0  0  0  0  0
  1  2  1  0  0  0
  1 24  1  0  0  0
  1 25  1  0  0  0
  1 26  1  0  0  0
  2  3  1  0  0  0
  2 27  1  0  0  0
  2 28  1  0  0  0
  3  4  1  0  0  0
  3 29  1  0  0  0
  3 30  1  0  0  0
  4  5  1  0  0  0
  4 31  1  0  0  0
  4 32  1  0  0  0
  5  6  1  0  0  0
  5 33  1  0  0  0
  5 34  1  0  0  0
  6  7  1  0  0  0
  6 35  1  0  0  0
  6 36  1  0  0  0
  7  8  1  0  0  0
  7 37  1  0  0  0
  7 38  1  0  0  0
  8  9  1  0  0  0
  8 39  1  0  0  0
  8 40  1  0  0  0
  9 10  1  0  0  0
  9 41  1  0  0  0
  9 42  1  0  0  0
 10 11  1  0  0  0
 10 43  1  0  0  0
 10 44  1  0  0  0
 11 12  1  0  0  0
 11 45  1  0  0  0
 11 46  1  0  0  0
 12 13  1  0  0  0
 12 47  1  0  0  0
 12 48  1  0  0  0
 13 14  1  0  0  0
 13 49  1  0  0  0
 13 50  1  0  0  0
 14 15  1  0  0  0
 14 51  1  0  0  0
 14 52  1  0  0  0
 15 16  1  0  0  0
 15 53  1  0  0  0
 15 54  1  0  0  0
 16 17  2  0  0  0
 16 18  1  0  0  0
 18 19  1  0  0  0
 19 20  1  0  0  0
 19 55  1  0  0  0
 19 56  1  0  0  0
 20 21  1  0  0  0
 20 23  1  0  0  0
 20 57  1  0  0  0
 21 22  1  0  0  0
 21 58  1  0  0  0
 21 59  1  0  0  0
 22 60  1  0  0  0
 23 61  1  0  0  0
M  END
>  <i_m_Spin_multiplicity> (1)
1

>  <s_j_Task> (1)
Single Point

>  <s_j_QM_Method> (1)
DFT(b3lyp-d3)

>  <s_j_QM_Basis> (1)
cc-pvtz(-f)

>  <i_j_Number_of_canonical_orbitals> (1)
866

>  <i_j_Geometry_convergence_category> (1)
3

>  <r_j_Gas_Phase_Energy> (1)
-1048.25688672494

>  <r_j_Final_Energy> (1)
-1048.25688672494

>  <r_j_HOMO> (1)
-0.268696127739968

>  <r_j_LUMO> (1)
-0.0185887069061084

>  <r_j_Polarizability> (1)
249.094249622728

>  <r_j_QM_Dipole_(debye)> (1)
3.59116393608618

>  <r_j_QM_Dipole_X_(debye)> (1)
-2.93608927641429

>  <r_j_QM_Dipole_Y_(debye)> (1)
0.794013653676903

>  <r_j_QM_Dipole_Z_(debye)> (1)
-1.90928795485272

>  <r_j_Lowest_Frequency_(cm-1)> (1)
19.3243683630123

>  <r_j_Highest_Frequency_(cm-1)> (1)
3789.88531492914

>  <r_j_2nd_Lowest_Frequency_(cm-1)> (1)
31.5902821297281

>  <i_j_Num_Negative_Frequencies> (1)
0

>  <r_j_Zero_Point_Energy_(kcal/mol)> (1)
348.485761237933

>  <r_j_Entropy_(cal/mol/K)_298.15K_1.00E+00atm> (1)
175.241768468598

>  <r_j_Enthalpy_(kcal/mol)_298.15K_1.00E+00atm> (1)
17.5181365584174

>  <r_j_Free_Energy_(kcal/mol)_298.15K_1.00E+00atm> (1)
-34.7301967104951

>  <r_j_Internal_Energy_(kcal/mol)_298.15K_1.00E+00atm> (1)
16.9256509695902

>  <r_j_Heat_Capacity_(cal/mol/K)_298.15K_1.00E+00atm> (1)
102.420084414901

>  <r_j_ln(Q)_298.15K_1.00E+00atm> (1)
58.6177914963934

>  <r_j_Total_Internal_Energy_(au)_298.15K_1.00E+00atm> (1)
-1047.67456656934

>  <r_j_Total_Enthalpy_(au)_298.15K_1.00E+00atm> (1)
-1047.67362238345

>  <r_j_Total_Free_Energy_(au)_298.15K_1.00E+00atm> (1)
-1047.756885403

>  <r_lp_tautomer_probability> (1)
1

>  <r_epik_Ionization_Penalty> (1)
  0.0000

>  <r_epik_Ionization_Penalty_Charging> (1)
  0.0000

>  <r_epik_Ionization_Penalty_Neutral> (1)
  0.0000

>  <r_epik_State_Penalty> (1)
  0.0000

>  <r_epik_Charging_Adjusted_Penalty> (1)
0

>  <i_epik_Tot_Q> (1)
0

>  <i_epik_Tot_abs_Q> (1)
0

>  <s_lp_Force_Field> (1)
S-OPLS

>  <r_lp_Energy> (1)
8.445695

>  <b_lp_Chiralities_Consistent> (1)
1

>  <s_epik_Chemistry_Notes> (1)
This compound has an ester and may undergo hydrolysis at high or low pH.

$$$$
