14910_Diethylcyclohexane
                    3D
 Schrodinger Suite 2021-3.
 30 30  0  0  1  0            999 V2000
   -0.6776    1.4669    0.1814 C   0  0  0  0  0  0
   -0.0649    0.0674    0.0601 C   0  0  0  0  0  0
    1.4719    0.0398   -0.0052 C   0  0  0  0  0  0
    1.9977   -1.4069    0.0556 C   0  0  0  0  0  0
    3.5306   -1.4778   -0.0313 C   0  0  0  0  0  0
    4.0889   -0.7759   -1.2879 C   0  0  0  0  0  0
    3.5642    0.6754   -1.3233 C   0  0  0  0  0  0
    2.0309    0.7558   -1.2498 C   0  0  0  0  0  0
    3.7866   -1.5768   -2.5723 C   0  0  0  0  0  0
    4.4418   -1.0118   -3.8369 C   0  0  0  0  0  0
   -1.7648    1.4118    0.2995 H   0  0  0  0  0  0
   -0.4753    2.0797   -0.7026 H   0  0  0  0  0  0
   -0.2749    1.9977    1.0520 H   0  0  0  0  0  0
   -0.3880   -0.5387    0.9174 H   0  0  0  0  0  0
   -0.4663   -0.4340   -0.8325 H   0  0  0  0  0  0
    1.8577    0.5702    0.8814 H   0  0  0  0  0  0
    1.6562   -1.8848    0.9826 H   0  0  0  0  0  0
    1.5493   -1.9826   -0.7660 H   0  0  0  0  0  0
    3.9553   -0.9943    0.8595 H   0  0  0  0  0  0
    3.8617   -2.5237   -0.0053 H   0  0  0  0  0  0
    5.1840   -0.7344   -1.1926 H   0  0  0  0  0  0
    3.9843    1.2147   -0.4628 H   0  0  0  0  0  0
    3.9271    1.1983   -2.2151 H   0  0  0  0  0  0
    1.5865    0.3050   -2.1488 H   0  0  0  0  0  0
    1.7242    1.8077   -1.2532 H   0  0  0  0  0  0
    4.1343   -2.6073   -2.4194 H   0  0  0  0  0  0
    2.7041   -1.6490   -2.7309 H   0  0  0  0  0  0
    4.2759   -1.6716   -4.6949 H   0  0  0  0  0  0
    5.5246   -0.9023   -3.7051 H   0  0  0  0  0  0
    4.0397   -0.0282   -4.0996 H   0  0  0  0  0  0
  1  2  1  0  0  0
  1 11  1  0  0  0
  1 12  1  0  0  0
  1 13  1  0  0  0
  2  3  1  0  0  0
  2 14  1  0  0  0
  2 15  1  0  0  0
  3  8  1  0  0  0
  3  4  1  0  0  0
  3 16  1  0  0  0
  4  5  1  0  0  0
  4 17  1  0  0  0
  4 18  1  0  0  0
  5  6  1  0  0  0
  5 19  1  0  0  0
  5 20  1  0  0  0
  6  7  1  0  0  0
  6  9  1  0  0  0
  6 21  1  0  0  0
  7  8  1  0  0  0
  7 22  1  0  0  0
  7 23  1  0  0  0
  8 24  1  0  0  0
  8 25  1  0  0  0
  9 10  1  0  0  0
  9 26  1  0  0  0
  9 27  1  0  0  0
 10 28  1  0  0  0
 10 29  1  0  0  0
 10 30  1  0  0  0
M  END
>  <i_m_Spin_multiplicity> (1)
1

>  <s_j_Task> (1)
Single Point

>  <s_j_QM_Method> (1)
DFT(b3lyp-d3)

>  <s_j_QM_Basis> (1)
cc-pvtz(-f)

>  <i_j_Number_of_canonical_orbitals> (1)
405

>  <i_j_Geometry_convergence_category> (1)
3

>  <r_j_Gas_Phase_Energy> (1)
-393.29031432259

>  <r_j_Final_Energy> (1)
-393.29031432259

>  <r_j_HOMO> (1)
-0.2858258128883

>  <r_j_LUMO> (1)
0.030358893236598

>  <r_j_Polarizability> (1)
116.79188394752

>  <r_j_QM_Dipole_(debye)> (1)
0.0725749753677846

>  <r_j_QM_Dipole_X_(debye)> (1)
0.0405702675632712

>  <r_j_QM_Dipole_Y_(debye)> (1)
-0.0317971188346364

>  <r_j_QM_Dipole_Z_(debye)> (1)
0.0510893694744331

>  <r_j_Lowest_Frequency_(cm-1)> (1)
73.747306390478

>  <r_j_Highest_Frequency_(cm-1)> (1)
3052.2697976783

>  <r_j_2nd_Lowest_Frequency_(cm-1)> (1)
129.309515219658

>  <i_j_Num_Negative_Frequencies> (1)
0

>  <r_j_Zero_Point_Energy_(kcal/mol)> (1)
177.475064601048

>  <r_j_Entropy_(cal/mol/K)_298.15K_1.00E+00atm> (1)
97.9170848692612

>  <r_j_Enthalpy_(kcal/mol)_298.15K_1.00E+00atm> (1)
7.21598930198292

>  <r_j_Free_Energy_(kcal/mol)_298.15K_1.00E+00atm> (1)
-21.9779895517873

>  <r_j_Internal_Energy_(kcal/mol)_298.15K_1.00E+00atm> (1)
6.62350371315565

>  <r_j_Heat_Capacity_(cal/mol/K)_298.15K_1.00E+00atm> (1)
42.7802714543575

>  <r_j_ln(Q)_298.15K_1.00E+00atm> (1)
37.0945554900146

>  <r_j_Total_Internal_Energy_(au)_298.15K_1.00E+00atm> (1)
-392.996934577558

>  <r_j_Total_Enthalpy_(au)_298.15K_1.00E+00atm> (1)
-392.995990391665

>  <r_j_Total_Free_Energy_(au)_298.15K_1.00E+00atm> (1)
-393.042513958638

>  <r_lp_tautomer_probability> (1)
1

>  <r_epik_Ionization_Penalty> (1)
  0.0000

>  <r_epik_Ionization_Penalty_Charging> (1)
  0.0000

>  <r_epik_Ionization_Penalty_Neutral> (1)
  0.0000

>  <r_epik_State_Penalty> (1)
  0.0000

>  <r_epik_Charging_Adjusted_Penalty> (1)
0

>  <i_epik_Tot_Q> (1)
0

>  <i_epik_Tot_abs_Q> (1)
0

>  <s_lp_Force_Field> (1)
S-OPLS

>  <r_lp_Energy> (1)
12.3064

>  <b_lp_Chiralities_Consistent> (1)
1

$$$$
