14917_Hydrogen fluoride
                    3D
 Schrodinger Suite 2021-3.
  2  1  0  0  1  0            999 V2000
    0.0000    0.0000   -0.0466 F   0  0  0  0  0  0
    0.0000    0.0000    0.8787 H   0  0  0  0  0  0
  1  2  1  0  0  0
M  END
>  <i_m_Spin_multiplicity> (1)
1

>  <s_j_Task> (1)
Single Point

>  <s_j_QM_Method> (1)
DFT(b3lyp-d3)

>  <s_j_QM_Basis> (1)
cc-pvtz(-f)

>  <i_j_Number_of_canonical_orbitals> (1)
32

>  <r_j_Gas_Phase_Energy> (1)
-100.48254930453

>  <r_j_Final_Energy> (1)
-100.48254930453

>  <r_j_Polarizability> (1)
3.63260545205643

>  <r_j_QM_Dipole_(debye)> (1)
1.8400751306237

>  <r_j_QM_Dipole_X_(debye)> (1)
2.69786122418452e-08

>  <r_j_QM_Dipole_Y_(debye)> (1)
-1.36742505792778e-08

>  <r_j_QM_Dipole_Z_(debye)> (1)
1.8400751306237

>  <r_j_Zero_Point_Energy_(kcal/mol)> (1)
5.79835654209651

>  <r_j_Entropy_(cal/mol/K)_298.15K_1.00E+00atm> (1)
41.498939110563

>  <r_j_Enthalpy_(kcal/mol)_298.15K_1.00E+00atm> (1)
2.07369959753031

>  <r_j_Free_Energy_(kcal/mol)_298.15K_1.00E+00atm> (1)
-10.299209098284

>  <r_j_Internal_Energy_(kcal/mol)_298.15K_1.00E+00atm> (1)
1.48121400870304

>  <r_j_Heat_Capacity_(cal/mol/K)_298.15K_1.00E+00atm> (1)
4.96801841060428

>  <r_j_ln(Q)_298.15K_1.00E+00atm> (1)
17.3830541915283

>  <r_j_Total_Internal_Energy_(au)_298.15K_1.00E+00atm> (1)
-100.47094857036

>  <r_j_Total_Enthalpy_(au)_298.15K_1.00E+00atm> (1)
-100.470004384468

>  <r_j_Total_Free_Energy_(au)_298.15K_1.00E+00atm> (1)
-100.489721869681

>  <r_j_HOMO> (1)
-0.406865054246171

>  <r_j_LUMO> (1)
0.0201585770897644

>  <r_j_Lowest_Frequency_(cm-1)> (1)
4056.00942794617

>  <r_j_Highest_Frequency_(cm-1)> (1)
4056.00942794617

>  <r_j_2nd_Lowest_Frequency_(cm-1)> (1)
4056.00942794617

>  <i_j_Num_Negative_Frequencies> (1)
0

>  <i_j_Geometry_convergence_category> (1)
0

$$$$
