149211_Pentadecenal
                    3D
 Schrodinger Suite 2021-3.
 44 43  0  0  1  0            999 V2000
   -6.4337    4.2889   -0.2539 C   0  0  0  0  0  0
   -4.9025    4.2936   -0.2205 C   0  0  0  0  0  0
   -4.2988    2.8873   -0.1275 C   0  0  0  0  0  0
   -2.7667    2.8856   -0.0905 C   0  0  0  0  0  0
   -2.1561    1.4826   -0.0002 C   0  0  0  0  0  0
   -0.6238    1.4931    0.0427 C   0  0  0  0  0  0
   -0.0095    0.0904    0.1364 C   0  0  0  0  0  0
    1.5266    0.0680    0.1043 C   0  0  0  0  0  0
    2.1933    0.7408    1.3112 C   0  0  0  0  0  0
    3.7229    0.6491    1.2825 C   0  0  0  0  0  0
    4.3847    1.3132    2.4944 C   0  0  0  0  0  0
    5.9246    1.2381    2.4520 C   0  0  0  0  0  0
    6.5523    1.8326    3.6736 C   0  0  0  0  0  0
    7.3638    2.9008    3.7038 C   0  0  0  0  0  0
    7.9029    3.4186    4.9689 C   0  0  0  0  0  0
    8.6390    4.3842    5.0587 O   0  0  0  0  0  0
   -6.8385    5.3041   -0.3212 H   0  0  0  0  0  0
   -6.8461    3.8245    0.6493 H   0  0  0  0  0  0
   -6.8074    3.7229   -1.1149 H   0  0  0  0  0  0
   -4.5160    4.7933   -1.1193 H   0  0  0  0  0  0
   -4.5546    4.8927    0.6321 H   0  0  0  0  0  0
   -4.6858    2.3847    0.7707 H   0  0  0  0  0  0
   -4.6439    2.2868   -0.9816 H   0  0  0  0  0  0
   -2.3813    3.3916   -0.9873 H   0  0  0  0  0  0
   -2.4243    3.4857    0.7648 H   0  0  0  0  0  0
   -2.5413    0.9746    0.8956 H   0  0  0  0  0  0
   -2.4936    0.8819   -0.8569 H   0  0  0  0  0  0
   -0.2380    1.9967   -0.8556 H   0  0  0  0  0  0
   -0.2979    2.1030    0.8953 H   0  0  0  0  0  0
   -0.3605   -0.3987    1.0565 H   0  0  0  0  0  0
   -0.3908   -0.5185   -0.6942 H   0  0  0  0  0  0
    1.8676   -0.9747    0.0487 H   0  0  0  0  0  0
    1.8772    0.5516   -0.8188 H   0  0  0  0  0  0
    1.9023    1.7979    1.3597 H   0  0  0  0  0  0
    1.8176    0.2788    2.2356 H   0  0  0  0  0  0
    4.0270   -0.4062    1.2346 H   0  0  0  0  0  0
    4.0986    1.1158    0.3609 H   0  0  0  0  0  0
    4.0806    2.3661    2.5531 H   0  0  0  0  0  0
    4.0223    0.8375    3.4162 H   0  0  0  0  0  0
    6.2216    0.1818    2.3744 H   0  0  0  0  0  0
    6.2975    1.7404    1.5517 H   0  0  0  0  0  0
    6.2967    1.3528    4.6214 H   0  0  0  0  0  0
    7.6544    3.4287    2.7979 H   0  0  0  0  0  0
    7.5841    2.8533    5.8762 H   0  0  0  0  0  0
  1  2  1  0  0  0
  1 17  1  0  0  0
  1 18  1  0  0  0
  1 19  1  0  0  0
  2  3  1  0  0  0
  2 20  1  0  0  0
  2 21  1  0  0  0
  3  4  1  0  0  0
  3 22  1  0  0  0
  3 23  1  0  0  0
  4  5  1  0  0  0
  4 24  1  0  0  0
  4 25  1  0  0  0
  5  6  1  0  0  0
  5 26  1  0  0  0
  5 27  1  0  0  0
  6  7  1  0  0  0
  6 28  1  0  0  0
  6 29  1  0  0  0
  7  8  1  0  0  0
  7 30  1  0  0  0
  7 31  1  0  0  0
  8  9  1  0  0  0
  8 32  1  0  0  0
  8 33  1  0  0  0
  9 10  1  0  0  0
  9 34  1  0  0  0
  9 35  1  0  0  0
 10 11  1  0  0  0
 10 36  1  0  0  0
 10 37  1  0  0  0
 11 12  1  0  0  0
 11 38  1  0  0  0
 11 39  1  0  0  0
 12 13  1  0  0  0
 12 40  1  0  0  0
 12 41  1  0  0  0
 13 14  2  0  0  0
 13 42  1  0  0  0
 14 15  1  0  0  0
 14 43  1  0  0  0
 15 16  2  0  0  0
 15 44  1  0  0  0
M  END
>  <i_m_Spin_multiplicity> (1)
1

>  <s_j_Task> (1)
Single Point

>  <s_j_QM_Method> (1)
DFT(b3lyp-d3)

>  <s_j_QM_Basis> (1)
cc-pvtz(-f)

>  <i_j_Number_of_canonical_orbitals> (1)
615

>  <i_j_Geometry_convergence_category> (1)
3

>  <r_j_Gas_Phase_Energy> (1)
-663.945887129596

>  <r_j_Final_Energy> (1)
-663.945887129596

>  <r_j_HOMO> (1)
-0.264299428778677

>  <r_j_LUMO> (1)
-0.0718582766440552

>  <r_j_Polarizability> (1)
192.693805013207

>  <r_j_QM_Dipole_(debye)> (1)
4.4148939592796

>  <r_j_QM_Dipole_X_(debye)> (1)
-2.85562108752186

>  <r_j_QM_Dipole_Y_(debye)> (1)
-2.98007419893081

>  <r_j_QM_Dipole_Z_(debye)> (1)
-1.56712304719536

>  <r_j_Lowest_Frequency_(cm-1)> (1)
28.4450766058298

>  <r_j_Highest_Frequency_(cm-1)> (1)
3120.90211733306

>  <r_j_2nd_Lowest_Frequency_(cm-1)> (1)
56.9978860704592

>  <i_j_Num_Negative_Frequencies> (1)
0

>  <r_j_Zero_Point_Energy_(kcal/mol)> (1)
252.817401919191

>  <r_j_Entropy_(cal/mol/K)_298.15K_1.00E+00atm> (1)
139.140944431861

>  <r_j_Enthalpy_(kcal/mol)_298.15K_1.00E+00atm> (1)
12.4041404709452

>  <r_j_Free_Energy_(kcal/mol)_298.15K_1.00E+00atm> (1)
-29.0807321114142

>  <r_j_Internal_Energy_(kcal/mol)_298.15K_1.00E+00atm> (1)
11.8116548821179

>  <r_j_Heat_Capacity_(cal/mol/K)_298.15K_1.00E+00atm> (1)
70.793972081091

>  <r_j_ln(Q)_298.15K_1.00E+00atm> (1)
49.0825982265233

>  <r_j_Total_Internal_Energy_(au)_298.15K_1.00E+00atm> (1)
-663.524173881505

>  <r_j_Total_Enthalpy_(au)_298.15K_1.00E+00atm> (1)
-663.523229695613

>  <r_j_Total_Free_Energy_(au)_298.15K_1.00E+00atm> (1)
-663.589340048629

>  <r_lp_tautomer_probability> (1)
1

>  <r_epik_Ionization_Penalty> (1)
  0.0000

>  <r_epik_Ionization_Penalty_Charging> (1)
  0.0000

>  <r_epik_Ionization_Penalty_Neutral> (1)
  0.0000

>  <r_epik_State_Penalty> (1)
  0.0000

>  <r_epik_Charging_Adjusted_Penalty> (1)
0

>  <i_epik_Tot_Q> (1)
0

>  <i_epik_Tot_abs_Q> (1)
0

>  <s_lp_Force_Field> (1)
S-OPLS

>  <r_lp_Energy> (1)
3.042162

>  <b_lp_Chiralities_Consistent> (1)
1

$$$$
