14985_Vitamin E
                    3D
 Schrodinger Suite 2021-3.
 81 82  0  0  1  0            999 V2000
   -9.1591   -2.0575    1.5481 C   0  0  0  0  0  0
   -8.3237   -1.7167    0.3329 C   0  0  0  0  0  0
   -6.9594   -2.0353    0.2582 C   0  0  0  0  0  0
   -6.2333   -1.6365   -0.8792 C   0  0  0  0  0  0
   -6.8419   -0.9456   -1.9365 C   0  0  0  0  0  0
   -6.0210   -0.5052   -3.1308 C   0  0  0  0  0  0
   -4.5175   -0.6164   -2.8606 C   0  0  0  0  0  0
   -4.1781   -1.9263   -2.1342 C   0  0  0  0  0  0
   -4.8880   -1.9457   -0.8758 O   0  0  0  0  0  0
   -4.5852   -3.1601   -2.9542 C   0  0  0  0  0  0
   -2.6896   -2.0215   -1.7611 C   0  0  0  0  0  0
   -2.1731   -0.9953   -0.7442 C   0  0  0  0  0  0
   -0.6502   -1.0986   -0.5779 C   0  0  0  0  0  0
   -0.0507   -0.3073    0.6018 C   0  0  0  0  0  0
   -0.5095    1.1590    0.6078 C   0  0  0  0  0  0
    1.4910   -0.3703    0.5943 C   0  0  0  0  0  0
    2.0990   -1.7770    0.6653 C   0  0  0  0  0  0
    3.6339   -1.7566    0.6837 C   0  0  0  0  0  0
    4.3013   -3.1428    0.5819 C   0  0  0  0  0  0
    3.9976   -4.0100    1.8135 C   0  0  0  0  0  0
    5.8174   -2.9932    0.3459 C   0  0  0  0  0  0
    6.5515   -4.2980    0.0087 C   0  0  0  0  0  0
    8.0309   -4.0778   -0.3327 C   0  0  0  0  0  0
    8.7812   -5.3338   -0.8155 C   0  0  0  0  0  0
    8.8243   -6.4368    0.2525 C   0  0  0  0  0  0
   10.2032   -4.9698   -1.2663 C   0  0  0  0  0  0
   -8.2213   -0.6785   -1.8854 C   0  0  0  0  0  0
   -8.9397   -1.0653   -0.7502 C   0  0  0  0  0  0
  -10.2858   -0.7554   -0.7253 O   0  0  0  0  0  0
   -8.9159    0.0203   -3.0294 C   0  0  0  0  0  0
   -6.2591   -2.7852    1.3693 C   0  0  0  0  0  0
   -8.5425   -2.2899    2.4162 H   0  0  0  0  0  0
   -9.8097   -2.9275    1.3769 H   0  0  0  0  0  0
   -9.8014   -1.2148    1.8350 H   0  0  0  0  0  0
   -6.2932   -1.1052   -4.0099 H   0  0  0  0  0  0
   -6.2695    0.5288   -3.3948 H   0  0  0  0  0  0
   -3.9482   -0.5497   -3.7940 H   0  0  0  0  0  0
   -4.2035    0.2174   -2.2262 H   0  0  0  0  0  0
   -4.0609   -3.1742   -3.9155 H   0  0  0  0  0  0
   -5.6604   -3.1752   -3.1464 H   0  0  0  0  0  0
   -4.3309   -4.0705   -2.4042 H   0  0  0  0  0  0
   -2.5036   -3.0275   -1.3635 H   0  0  0  0  0  0
   -2.1113   -1.9472   -2.6923 H   0  0  0  0  0  0
   -2.4387    0.0191   -1.0594 H   0  0  0  0  0  0
   -2.6773   -1.1608    0.2148 H   0  0  0  0  0  0
   -0.3845   -2.1570   -0.4646 H   0  0  0  0  0  0
   -0.1669   -0.7650   -1.5093 H   0  0  0  0  0  0
   -0.4056   -0.7764    1.5329 H   0  0  0  0  0  0
   -0.2414    1.6532   -0.3347 H   0  0  0  0  0  0
   -0.0315    1.7159    1.4212 H   0  0  0  0  0  0
   -1.5919    1.2497    0.7366 H   0  0  0  0  0  0
    1.8563    0.1339   -0.3133 H   0  0  0  0  0  0
    1.8711    0.2211    1.4392 H   0  0  0  0  0  0
    1.7114   -2.2889    1.5556 H   0  0  0  0  0  0
    1.7715   -2.3711   -0.1972 H   0  0  0  0  0  0
    3.9800   -1.1391   -0.1574 H   0  0  0  0  0  0
    3.9876   -1.2507    1.5944 H   0  0  0  0  0  0
    3.8793   -3.6473   -0.3020 H   0  0  0  0  0  0
    4.4088   -3.5460    2.7191 H   0  0  0  0  0  0
    4.4322   -5.0098    1.7245 H   0  0  0  0  0  0
    2.9215   -4.1372    1.9635 H   0  0  0  0  0  0
    5.9750   -2.2822   -0.4774 H   0  0  0  0  0  0
    6.2766   -2.5334    1.2339 H   0  0  0  0  0  0
    6.4690   -4.9971    0.8480 H   0  0  0  0  0  0
    6.0520   -4.7816   -0.8438 H   0  0  0  0  0  0
    8.1024   -3.3070   -1.1133 H   0  0  0  0  0  0
    8.5513   -3.6670    0.5456 H   0  0  0  0  0  0
    8.2394   -5.7284   -1.6887 H   0  0  0  0  0  0
    9.3192   -6.0735    1.1621 H   0  0  0  0  0  0
    9.3852   -7.3071   -0.1054 H   0  0  0  0  0  0
    7.8238   -6.7807    0.5311 H   0  0  0  0  0  0
   10.7862   -4.5708   -0.4268 H   0  0  0  0  0  0
   10.1913   -4.2085   -2.0541 H   0  0  0  0  0  0
   10.7356   -5.8458   -1.6527 H   0  0  0  0  0  0
  -10.7133   -1.2566   -0.0218 H   0  0  0  0  0  0
   -9.9988   -0.0285   -2.9170 H   0  0  0  0  0  0
   -8.6482   -0.4298   -3.9919 H   0  0  0  0  0  0
   -8.6328    1.0791   -3.0825 H   0  0  0  0  0  0
   -5.2713   -3.1127    1.0467 H   0  0  0  0  0  0
   -6.8281   -3.6683    1.6786 H   0  0  0  0  0  0
   -6.1255   -2.1558    2.2579 H   0  0  0  0  0  0
  1  2  1  0  0  0
  1 32  1  0  0  0
  1 33  1  0  0  0
  1 34  1  0  0  0
  2 28  1  0  0  0
  2  3  2  0  0  0
  3  4  1  0  0  0
  3 31  1  0  0  0
  4  9  1  0  0  0
  4  5  2  0  0  0
  5  6  1  0  0  0
  5 27  1  0  0  0
  6  7  1  0  0  0
  6 35  1  0  0  0
  6 36  1  0  0  0
  7  8  1  0  0  0
  7 37  1  0  0  0
  7 38  1  0  0  0
  8  9  1  0  0  0
  8 10  1  0  0  0
  8 11  1  0  0  0
 10 39  1  0  0  0
 10 40  1  0  0  0
 10 41  1  0  0  0
 11 12  1  0  0  0
 11 42  1  0  0  0
 11 43  1  0  0  0
 12 13  1  0  0  0
 12 44  1  0  0  0
 12 45  1  0  0  0
 13 14  1  0  0  0
 13 46  1  0  0  0
 13 47  1  0  0  0
 14 15  1  0  0  0
 14 16  1  0  0  0
 14 48  1  0  0  0
 15 49  1  0  0  0
 15 50  1  0  0  0
 15 51  1  0  0  0
 16 17  1  0  0  0
 16 52  1  0  0  0
 16 53  1  0  0  0
 17 18  1  0  0  0
 17 54  1  0  0  0
 17 55  1  0  0  0
 18 19  1  0  0  0
 18 56  1  0  0  0
 18 57  1  0  0  0
 19 20  1  0  0  0
 19 21  1  0  0  0
 19 58  1  0  0  0
 20 59  1  0  0  0
 20 60  1  0  0  0
 20 61  1  0  0  0
 21 22  1  0  0  0
 21 62  1  0  0  0
 21 63  1  0  0  0
 22 23  1  0  0  0
 22 64  1  0  0  0
 22 65  1  0  0  0
 23 24  1  0  0  0
 23 66  1  0  0  0
 23 67  1  0  0  0
 24 25  1  0  0  0
 24 26  1  0  0  0
 24 68  1  0  0  0
 25 69  1  0  0  0
 25 70  1  0  0  0
 25 71  1  0  0  0
 26 72  1  0  0  0
 26 73  1  0  0  0
 26 74  1  0  0  0
 27 28  2  0  0  0
 27 30  1  0  0  0
 28 29  1  0  0  0
 29 75  1  0  0  0
 30 76  1  0  0  0
 30 77  1  0  0  0
 30 78  1  0  0  0
 31 79  1  0  0  0
 31 80  1  0  0  0
 31 81  1  0  0  0
M  END
>  <i_m_Spin_multiplicity> (1)
1

>  <s_j_Task> (1)
Single Point

>  <s_j_QM_Method> (1)
DFT(b3lyp-d3)

>  <s_j_QM_Basis> (1)
cc-pvtz(-f)

>  <i_j_Number_of_canonical_orbitals> (1)
1147

>  <i_j_Geometry_convergence_category> (1)
4

>  <r_j_Gas_Phase_Energy> (1)
-1286.20624470229

>  <r_j_Final_Energy> (1)
-1286.20624470229

>  <r_j_HOMO> (1)
-0.195233554351043

>  <r_j_LUMO> (1)
-0.00653867456880072

>  <r_j_Polarizability> (1)
358.076530135412

>  <r_j_QM_Dipole_(debye)> (1)
0.781288233959769

>  <r_j_QM_Dipole_X_(debye)> (1)
0.192750710123068

>  <r_j_QM_Dipole_Y_(debye)> (1)
-0.741022860847612

>  <r_j_QM_Dipole_Z_(debye)> (1)
-0.155382070948512

>  <r_j_Lowest_Frequency_(cm-1)> (1)
23.4833234054059

>  <r_j_Highest_Frequency_(cm-1)> (1)
3797.95511795395

>  <r_j_2nd_Lowest_Frequency_(cm-1)> (1)
27.8039674482418

>  <i_j_Num_Negative_Frequencies> (1)
0

>  <r_j_Zero_Point_Energy_(kcal/mol)> (1)
462.884274611754

>  <r_j_Entropy_(cal/mol/K)_298.15K_1.00E+00atm> (1)
200.130055698469

>  <r_j_Enthalpy_(kcal/mol)_298.15K_1.00E+00atm> (1)
22.0284401192818

>  <r_j_Free_Energy_(kcal/mol)_298.15K_1.00E+00atm> (1)
-37.6403359872168

>  <r_j_Internal_Energy_(kcal/mol)_298.15K_1.00E+00atm> (1)
21.4359545304545

>  <r_j_Heat_Capacity_(cal/mol/K)_298.15K_1.00E+00atm> (1)
137.308413348664

>  <r_j_ln(Q)_298.15K_1.00E+00atm> (1)
63.5295384343769

>  <r_j_Total_Internal_Energy_(au)_298.15K_1.00E+00atm> (1)
-1285.43443128386

>  <r_j_Total_Enthalpy_(au)_298.15K_1.00E+00atm> (1)
-1285.43348709796

>  <r_j_Total_Free_Energy_(au)_298.15K_1.00E+00atm> (1)
-1285.52857534597

>  <r_lp_tautomer_probability> (1)
1

>  <r_epik_Ionization_Penalty> (1)
  0.0000

>  <r_epik_Ionization_Penalty_Charging> (1)
  0.0000

>  <r_epik_Ionization_Penalty_Neutral> (1)
  0.0000

>  <r_epik_State_Penalty> (1)
  0.0000

>  <r_epik_Charging_Adjusted_Penalty> (1)
0

>  <i_epik_Tot_Q> (1)
0

>  <i_epik_Tot_abs_Q> (1)
0

>  <s_lp_Force_Field> (1)
S-OPLS

>  <r_lp_Energy> (1)
29.0614

>  <b_lp_Chiralities_Consistent> (1)
1

$$$$
