15076_1-Hydroxyheptadecane
                    3D
 Schrodinger Suite 2021-3.
 54 53  0  0  1  0            999 V2000
   -8.3663    5.9997   -0.0937 C   0  0  0  0  0  0
   -6.8366    5.9295   -0.1193 C   0  0  0  0  0  0
   -6.2983    4.4959   -0.0398 C   0  0  0  0  0  0
   -4.7678    4.4198   -0.0674 C   0  0  0  0  0  0
   -4.2213    2.9896    0.0114 C   0  0  0  0  0  0
   -2.6902    2.9251   -0.0232 C   0  0  0  0  0  0
   -2.1322    1.4994    0.0533 C   0  0  0  0  0  0
   -0.6008    1.4464    0.0079 C   0  0  0  0  0  0
   -0.0325    0.0247    0.0809 C   0  0  0  0  0  0
    1.4988   -0.0197    0.0221 C   0  0  0  0  0  0
    2.0737   -1.4389    0.0927 C   0  0  0  0  0  0
    3.6045   -1.4791    0.0206 C   0  0  0  0  0  0
    4.1818   -2.8974    0.0927 C   0  0  0  0  0  0
    5.7135   -2.9285    0.0227 C   0  0  0  0  0  0
    6.3204   -4.3428    0.0029 C   0  0  0  0  0  0
    5.9623   -5.2355    1.2021 C   0  0  0  0  0  0
    6.3747   -4.6554    2.5491 C   0  0  0  0  0  0
    6.0908   -5.6346    3.5448 O   0  0  0  0  0  0
   -8.7235    7.0332   -0.1513 H   0  0  0  0  0  0
   -8.7658    5.5595    0.8273 H   0  0  0  0  0  0
   -8.8002    5.4493   -0.9365 H   0  0  0  0  0  0
   -6.4617    6.4053   -1.0358 H   0  0  0  0  0  0
   -6.4272    6.5154    0.7150 H   0  0  0  0  0  0
   -6.6711    4.0185    0.8779 H   0  0  0  0  0  0
   -6.7078    3.9077   -0.8737 H   0  0  0  0  0  0
   -4.3976    4.8988   -0.9853 H   0  0  0  0  0  0
   -4.3601    5.0100    0.7659 H   0  0  0  0  0  0
   -4.5860    2.5102    0.9311 H   0  0  0  0  0  0
   -4.6295    2.3975   -0.8203 H   0  0  0  0  0  0
   -2.3283    3.4067   -0.9429 H   0  0  0  0  0  0
   -2.2832    3.5189    0.8079 H   0  0  0  0  0  0
   -2.4868    1.0180    0.9759 H   0  0  0  0  0  0
   -2.5415    0.9034   -0.7750 H   0  0  0  0  0  0
   -0.2491    1.9302   -0.9147 H   0  0  0  0  0  0
   -0.1922    2.0436    0.8358 H   0  0  0  0  0  0
   -0.3759   -0.4580    1.0071 H   0  0  0  0  0  0
   -0.4453   -0.5749   -0.7431 H   0  0  0  0  0  0
    1.8398    0.4643   -0.9044 H   0  0  0  0  0  0
    1.9116    0.5809    0.8454 H   0  0  0  0  0  0
    1.7402   -1.9209    1.0228 H   0  0  0  0  0  0
    1.6559   -2.0417   -0.7263 H   0  0  0  0  0  0
    3.9372   -0.9970   -0.9098 H   0  0  0  0  0  0
    4.0227   -0.8753    0.8391 H   0  0  0  0  0  0
    3.8408   -3.3739    1.0215 H   0  0  0  0  0  0
    3.7686   -3.5027   -0.7271 H   0  0  0  0  0  0
    6.0400   -2.3974   -0.8815 H   0  0  0  0  0  0
    6.1240   -2.3559    0.8657 H   0  0  0  0  0  0
    5.9997   -4.8524   -0.9150 H   0  0  0  0  0  0
    7.4134   -4.2564   -0.0645 H   0  0  0  0  0  0
    4.8856   -5.4383    1.2283 H   0  0  0  0  0  0
    6.4555   -6.2085    1.0930 H   0  0  0  0  0  0
    7.4485   -4.4004    2.5282 H   0  0  0  0  0  0
    5.8246   -3.7210    2.7456 H   0  0  0  0  0  0
    6.3300   -5.2658    4.4042 H   0  0  0  0  0  0
  1  2  1  0  0  0
  1 19  1  0  0  0
  1 20  1  0  0  0
  1 21  1  0  0  0
  2  3  1  0  0  0
  2 22  1  0  0  0
  2 23  1  0  0  0
  3  4  1  0  0  0
  3 24  1  0  0  0
  3 25  1  0  0  0
  4  5  1  0  0  0
  4 26  1  0  0  0
  4 27  1  0  0  0
  5  6  1  0  0  0
  5 28  1  0  0  0
  5 29  1  0  0  0
  6  7  1  0  0  0
  6 30  1  0  0  0
  6 31  1  0  0  0
  7  8  1  0  0  0
  7 32  1  0  0  0
  7 33  1  0  0  0
  8  9  1  0  0  0
  8 34  1  0  0  0
  8 35  1  0  0  0
  9 10  1  0  0  0
  9 36  1  0  0  0
  9 37  1  0  0  0
 10 11  1  0  0  0
 10 38  1  0  0  0
 10 39  1  0  0  0
 11 12  1  0  0  0
 11 40  1  0  0  0
 11 41  1  0  0  0
 12 13  1  0  0  0
 12 42  1  0  0  0
 12 43  1  0  0  0
 13 14  1  0  0  0
 13 44  1  0  0  0
 13 45  1  0  0  0
 14 15  1  0  0  0
 14 46  1  0  0  0
 14 47  1  0  0  0
 15 16  1  0  0  0
 15 48  1  0  0  0
 15 49  1  0  0  0
 16 17  1  0  0  0
 16 50  1  0  0  0
 16 51  1  0  0  0
 17 18  1  0  0  0
 17 52  1  0  0  0
 17 53  1  0  0  0
 18 54  1  0  0  0
M  END
>  <i_m_Spin_multiplicity> (1)
1

>  <s_j_Task> (1)
Single Point

>  <s_j_QM_Method> (1)
DFT(b3lyp-d3)

>  <s_j_QM_Basis> (1)
cc-pvtz(-f)

>  <i_j_Number_of_canonical_orbitals> (1)
733

>  <i_j_Geometry_convergence_category> (1)
0

>  <r_j_Gas_Phase_Energy> (1)
-745.045624842006

>  <r_j_Final_Energy> (1)
-745.045624842006

>  <r_j_HOMO> (1)
-0.278678293194544

>  <r_j_LUMO> (1)
-0.0147486626209244

>  <r_j_Polarizability> (1)
216.589303047584

>  <r_j_QM_Dipole_(debye)> (1)
1.47307401764234

>  <r_j_QM_Dipole_X_(debye)> (1)
0.540353644094906

>  <r_j_QM_Dipole_Y_(debye)> (1)
1.35412768480051

>  <r_j_QM_Dipole_Z_(debye)> (1)
0.210483286802337

>  <r_j_Lowest_Frequency_(cm-1)> (1)
25.8984120840392

>  <r_j_Highest_Frequency_(cm-1)> (1)
3772.42967391564

>  <r_j_2nd_Lowest_Frequency_(cm-1)> (1)
37.7012866155718

>  <i_j_Num_Negative_Frequencies> (1)
0

>  <r_j_Zero_Point_Energy_(kcal/mol)> (1)
318.37805015308

>  <r_j_Entropy_(cal/mol/K)_298.15K_1.00E+00atm> (1)
153.03186728249

>  <r_j_Enthalpy_(kcal/mol)_298.15K_1.00E+00atm> (1)
14.4991187449326

>  <r_j_Free_Energy_(kcal/mol)_298.15K_1.00E+00atm> (1)
-31.1273324853417

>  <r_j_Internal_Energy_(kcal/mol)_298.15K_1.00E+00atm> (1)
13.9066331561053

>  <r_j_Heat_Capacity_(cal/mol/K)_298.15K_1.00E+00atm> (1)
84.211443272551

>  <r_j_ln(Q)_298.15K_1.00E+00atm> (1)
52.5368600896319

>  <r_j_Total_Internal_Energy_(au)_298.15K_1.00E+00atm> (1)
-744.51609548955

>  <r_j_Total_Enthalpy_(au)_298.15K_1.00E+00atm> (1)
-744.515151303658

>  <r_j_Total_Free_Energy_(au)_298.15K_1.00E+00atm> (1)
-744.587861682404

>  <r_lp_tautomer_probability> (1)
1

>  <r_epik_Ionization_Penalty> (1)
  0.0000

>  <r_epik_Ionization_Penalty_Charging> (1)
  0.0000

>  <r_epik_Ionization_Penalty_Neutral> (1)
  0.0000

>  <r_epik_State_Penalty> (1)
  0.0000

>  <r_epik_Charging_Adjusted_Penalty> (1)
0

>  <i_epik_Tot_Q> (1)
0

>  <i_epik_Tot_abs_Q> (1)
0

>  <s_lp_Force_Field> (1)
S-OPLS

>  <r_lp_Energy> (1)
9.34234

>  <b_lp_Chiralities_Consistent> (1)
1

$$$$
