151269_Heptacosanedioic acid
                    3D
 Schrodinger Suite 2021-3.
 82 81  0  0  1  0            999 V2000
   -0.2882   -1.0565   -0.7601 C   0  0  0  0  0  0
    1.2430   -1.0351   -0.8299 C   0  0  0  0  0  0
    1.9121   -2.4142   -0.8086 C   0  0  0  0  0  0
    3.4415   -2.3070   -0.7847 C   0  0  0  0  0  0
    4.1763   -3.6539   -0.8053 C   0  0  0  0  0  0
    5.6929   -3.5244   -0.5838 C   0  0  0  0  0  0
    6.4423   -2.7514   -1.6780 C   0  0  0  0  0  0
    7.9250   -2.5354   -1.3535 C   0  0  0  0  0  0
    8.6776   -1.7431   -2.4312 C   0  0  0  0  0  0
   10.1300   -1.3973   -2.0613 C   0  0  0  0  0  0
   10.2683   -0.4065   -0.8953 C   0  0  0  0  0  0
   11.7134    0.0121   -0.5987 C   0  0  0  0  0  0
   11.8449    0.9997    0.5604 C   0  0  0  0  0  0
   13.3189    1.4871    0.8449 C   0  0  0  0  0  0
   14.1822    1.1350   -0.0001 O   0  0  0  0  0  0
   13.4424    2.1822    1.8827 O   0  5  0  0  0  0
   -0.8845    0.3550   -0.8127 C   0  0  0  0  0  0
   -2.4077    0.4178   -0.6521 C   0  0  0  0  0  0
   -2.9391    1.8531   -0.7447 C   0  0  0  0  0  0
   -4.4444    1.9952   -0.4932 C   0  0  0  0  0  0
   -4.9235    3.4455   -0.6286 C   0  0  0  0  0  0
   -6.4031    3.6570   -0.2889 C   0  0  0  0  0  0
   -6.8472    5.1136   -0.4688 C   0  0  0  0  0  0
   -8.2944    5.3813   -0.0407 C   0  0  0  0  0  0
   -8.7171    6.8394   -0.2673 C   0  0  0  0  0  0
  -10.1546    7.1670    0.1646 C   0  0  0  0  0  0
  -10.3753    7.0926    1.6809 C   0  0  0  0  0  0
  -11.7976    7.5254    2.0868 C   0  0  0  0  0  0
  -11.9981    7.4507    3.5820 C   0  0  0  0  0  0
  -12.6815    6.6440    4.1728 O   0  0  0  0  0  0
  -11.2749    8.4037    4.2278 O   0  0  0  0  0  0
   -0.6911   -1.6583   -1.5873 H   0  0  0  0  0  0
   -0.6063   -1.5571    0.1657 H   0  0  0  0  0  0
    1.5545   -0.5013   -1.7393 H   0  0  0  0  0  0
    1.6272   -0.4398    0.0109 H   0  0  0  0  0  0
    1.5710   -2.9767    0.0726 H   0  0  0  0  0  0
    1.5917   -2.9950   -1.6855 H   0  0  0  0  0  0
    3.7649   -1.6975   -1.6380 H   0  0  0  0  0  0
    3.7445   -1.7496    0.1136 H   0  0  0  0  0  0
    3.7569   -4.3003   -0.0215 H   0  0  0  0  0  0
    3.9808   -4.1636   -1.7600 H   0  0  0  0  0  0
    5.8660   -3.0295    0.3827 H   0  0  0  0  0  0
    6.1328   -4.5268   -0.4914 H   0  0  0  0  0  0
    6.3373   -3.2808   -2.6369 H   0  0  0  0  0  0
    5.9763   -1.7682   -1.8240 H   0  0  0  0  0  0
    7.9987   -2.0087   -0.3943 H   0  0  0  0  0  0
    8.4193   -3.5066   -1.2041 H   0  0  0  0  0  0
    8.6541   -2.3145   -3.3710 H   0  0  0  0  0  0
    8.1317   -0.8089   -2.6318 H   0  0  0  0  0  0
   10.6781   -2.3211   -1.8243 H   0  0  0  0  0  0
   10.6287   -0.9713   -2.9426 H   0  0  0  0  0  0
    9.6667    0.4887   -1.1192 H   0  0  0  0  0  0
    9.8285   -0.8384    0.0151 H   0  0  0  0  0  0
   12.3209   -0.8766   -0.3806 H   0  0  0  0  0  0
   12.1762    0.4582   -1.4872 H   0  0  0  0  0  0
   11.2309    1.8931    0.3649 H   0  0  0  0  0  0
   11.4436    0.5669    1.4886 H   0  0  0  0  0  0
   -0.4220    0.9664   -0.0243 H   0  0  0  0  0  0
   -0.6009    0.8290   -1.7634 H   0  0  0  0  0  0
   -2.8898   -0.2035   -1.4204 H   0  0  0  0  0  0
   -2.6917   -0.0185    0.3162 H   0  0  0  0  0  0
   -2.3997    2.4807   -0.0206 H   0  0  0  0  0  0
   -2.6964    2.2631   -1.7356 H   0  0  0  0  0  0
   -5.0009    1.3577   -1.1950 H   0  0  0  0  0  0
   -4.6830    1.6219    0.5130 H   0  0  0  0  0  0
   -4.3150    4.0864    0.0257 H   0  0  0  0  0  0
   -4.7316    3.7944   -1.6534 H   0  0  0  0  0  0
   -7.0253    3.0045   -0.9179 H   0  0  0  0  0  0
   -6.5860    3.3438    0.7490 H   0  0  0  0  0  0
   -6.1788    5.7678    0.1095 H   0  0  0  0  0  0
   -6.7169    5.4045   -1.5210 H   0  0  0  0  0  0
   -8.9735    4.7174   -0.5949 H   0  0  0  0  0  0
   -8.4055    5.1153    1.0186 H   0  0  0  0  0  0
   -8.0237    7.5045    0.2673 H   0  0  0  0  0  0
   -8.6030    7.0771   -1.3333 H   0  0  0  0  0  0
  -10.4082    8.1796   -0.1774 H   0  0  0  0  0  0
  -10.8555    6.4880   -0.3414 H   0  0  0  0  0  0
  -10.2007    6.0721    2.0408 H   0  0  0  0  0  0
   -9.6483    7.7356    2.1912 H   0  0  0  0  0  0
  -11.9741    8.5566    1.7594 H   0  0  0  0  0  0
  -12.5471    6.8795    1.6229 H   0  0  0  0  0  0
  -11.4300    8.2636    5.1770 H   0  0  0  0  0  0
  1  2  1  0  0  0
  1 17  1  0  0  0
  1 32  1  0  0  0
  1 33  1  0  0  0
  2  3  1  0  0  0
  2 34  1  0  0  0
  2 35  1  0  0  0
  3  4  1  0  0  0
  3 36  1  0  0  0
  3 37  1  0  0  0
  4  5  1  0  0  0
  4 38  1  0  0  0
  4 39  1  0  0  0
  5  6  1  0  0  0
  5 40  1  0  0  0
  5 41  1  0  0  0
  6  7  1  0  0  0
  6 42  1  0  0  0
  6 43  1  0  0  0
  7  8  1  0  0  0
  7 44  1  0  0  0
  7 45  1  0  0  0
  8  9  1  0  0  0
  8 46  1  0  0  0
  8 47  1  0  0  0
  9 10  1  0  0  0
  9 48  1  0  0  0
  9 49  1  0  0  0
 10 11  1  0  0  0
 10 50  1  0  0  0
 10 51  1  0  0  0
 11 12  1  0  0  0
 11 52  1  0  0  0
 11 53  1  0  0  0
 12 13  1  0  0  0
 12 54  1  0  0  0
 12 55  1  0  0  0
 13 14  1  0  0  0
 13 56  1  0  0  0
 13 57  1  0  0  0
 14 15  2  0  0  0
 14 16  1  0  0  0
 17 18  1  0  0  0
 17 58  1  0  0  0
 17 59  1  0  0  0
 18 19  1  0  0  0
 18 60  1  0  0  0
 18 61  1  0  0  0
 19 20  1  0  0  0
 19 62  1  0  0  0
 19 63  1  0  0  0
 20 21  1  0  0  0
 20 64  1  0  0  0
 20 65  1  0  0  0
 21 22  1  0  0  0
 21 66  1  0  0  0
 21 67  1  0  0  0
 22 23  1  0  0  0
 22 68  1  0  0  0
 22 69  1  0  0  0
 23 24  1  0  0  0
 23 70  1  0  0  0
 23 71  1  0  0  0
 24 25  1  0  0  0
 24 72  1  0  0  0
 24 73  1  0  0  0
 25 26  1  0  0  0
 25 74  1  0  0  0
 25 75  1  0  0  0
 26 27  1  0  0  0
 26 76  1  0  0  0
 26 77  1  0  0  0
 27 28  1  0  0  0
 27 78  1  0  0  0
 27 79  1  0  0  0
 28 29  1  0  0  0
 28 80  1  0  0  0
 28 81  1  0  0  0
 29 30  2  0  0  0
 29 31  1  0  0  0
 31 82  1  0  0  0
M  END
>  <s_lp_Force_Field> (1)
S-OPLS

>  <r_lp_Energy> (1)
16.5612

>  <b_lp_Chiralities_Consistent> (1)
1

>  <r_epik_Ionization_Penalty> (1)
  2.4441

>  <r_epik_Ionization_Penalty_Charging> (1)
  0.0024

>  <r_epik_Ionization_Penalty_Neutral> (1)
  2.4417

>  <r_epik_State_Penalty> (1)
  2.6025

>  <r_epik_Charging_Adjusted_Penalty> (1)
2.60492

>  <i_epik_Tot_Q> (1)
-1

>  <i_epik_Tot_abs_Q> (1)
1

>  <i_m_Spin_multiplicity> (1)
1

>  <s_j_Task> (1)
Single Point

>  <s_j_QM_Method> (1)
DFT(b3lyp-d3)

>  <s_j_QM_Basis> (1)
6-31g**

>  <i_j_Number_of_canonical_orbitals> (1)
720

>  <i_j_Geometry_convergence_category> (1)
4

>  <r_j_Gas_Phase_Energy> (1)
-1360.74225963419

>  <r_j_Final_Energy> (1)
-1360.74225963419

>  <r_j_HOMO> (1)
-0.0044557251461893

>  <r_j_LUMO> (1)
0.0319837173767408

>  <r_j_Polarizability> (1)
310.387021322795

>  <r_j_QM_Dipole_(debye)> (1)
61.0607081199331

>  <r_j_QM_Dipole_X_(debye)> (1)
-60.8450012898151

>  <r_j_QM_Dipole_Y_(debye)> (1)
3.09479790260437

>  <r_j_QM_Dipole_Z_(debye)> (1)
-4.08877978033784

>  <r_j_Lowest_Frequency_(cm-1)> (1)
-16.595328024146

>  <r_j_Highest_Frequency_(cm-1)> (1)
3753.27838234662

>  <r_j_2nd_Lowest_Frequency_(cm-1)> (1)
-3.2116210661467

>  <i_j_Num_Negative_Frequencies> (1)
2

>  <r_j_Zero_Point_Energy_(kcal/mol)> (1)
471.998956559966

>  <r_j_Entropy_(cal/mol/K)_298.15K_1.00E+00atm> (1)
215.397141255816

>  <r_j_Enthalpy_(kcal/mol)_298.15K_1.00E+00atm> (1)
22.7139453354267

>  <r_j_Free_Energy_(kcal/mol)_298.15K_1.00E+00atm> (1)
-41.5067123299948

>  <r_j_Internal_Energy_(kcal/mol)_298.15K_1.00E+00atm> (1)
22.1214597465994

>  <r_j_Heat_Capacity_(cal/mol/K)_298.15K_1.00E+00atm> (1)
132.851300208233

>  <r_j_ln(Q)_298.15K_1.00E+00atm> (1)
70.0552268488933

>  <r_j_Total_Internal_Energy_(au)_298.15K_1.00E+00atm> (1)
-1359.9548286233

>  <r_j_Total_Enthalpy_(au)_298.15K_1.00E+00atm> (1)
-1359.95388443741

>  <r_j_Total_Free_Energy_(au)_298.15K_1.00E+00atm> (1)
-1360.05622657045

$$$$
