15260_2-(2-ethylhexyloxy)ethanol
                    3D
 Schrodinger Suite 2021-3.
 34 33  0  0  1  0            999 V2000
   -0.3094   -4.4827   -2.5943 C   0  0  0  0  0  0
   -0.5787   -2.9750   -2.5926 C   0  0  0  0  0  0
   -0.0221   -2.2663   -1.3516 C   0  0  0  0  0  0
   -0.2945   -0.7557   -1.3554 C   0  0  0  0  0  0
    0.1665    0.0038   -0.0966 C   0  0  0  0  0  0
   -0.4082    1.4345   -0.0355 C   0  0  0  0  0  0
   -1.9063    1.4975    0.2778 C   0  0  0  0  0  0
    1.6944    0.0558   -0.0105 C   0  0  0  0  0  0
    2.0537    0.6278    1.2358 O   0  0  0  0  0  0
    3.4307    0.9087    1.3655 C   0  0  0  0  0  0
    3.6451    1.6937    2.6440 C   0  0  0  0  0  0
    3.1102    2.9979    2.4602 O   0  0  0  0  0  0
   -0.7183   -4.9640   -3.4888 H   0  0  0  0  0  0
   -0.7615   -4.9645   -1.7196 H   0  0  0  0  0  0
    0.7664   -4.6910   -2.5655 H   0  0  0  0  0  0
   -0.1418   -2.5221   -3.4932 H   0  0  0  0  0  0
   -1.6604   -2.7940   -2.6569 H   0  0  0  0  0  0
   -0.4660   -2.7116   -0.4496 H   0  0  0  0  0  0
    1.0562   -2.4623   -1.2862 H   0  0  0  0  0  0
    0.1757   -0.3003   -2.2399 H   0  0  0  0  0  0
   -1.3732   -0.6047   -1.4829 H   0  0  0  0  0  0
   -0.1828   -0.5437    0.7916 H   0  0  0  0  0  0
    0.1450    1.9902    0.7283 H   0  0  0  0  0  0
   -0.2061    1.9361   -0.9932 H   0  0  0  0  0  0
   -2.2523    2.5349    0.3330 H   0  0  0  0  0  0
   -2.1222    1.0236    1.2422 H   0  0  0  0  0  0
   -2.5127    0.9919   -0.4814 H   0  0  0  0  0  0
    2.1363   -0.9494   -0.1057 H   0  0  0  0  0  0
    2.0900    0.6658   -0.8428 H   0  0  0  0  0  0
    4.0249   -0.0218    1.4009 H   0  0  0  0  0  0
    3.7947    1.5066    0.5136 H   0  0  0  0  0  0
    3.1488    1.1578    3.4675 H   0  0  0  0  0  0
    4.7263    1.7237    2.8613 H   0  0  0  0  0  0
    3.0909    3.4380    3.3186 H   0  0  0  0  0  0
  1  2  1  0  0  0
  1 13  1  0  0  0
  1 14  1  0  0  0
  1 15  1  0  0  0
  2  3  1  0  0  0
  2 16  1  0  0  0
  2 17  1  0  0  0
  3  4  1  0  0  0
  3 18  1  0  0  0
  3 19  1  0  0  0
  4  5  1  0  0  0
  4 20  1  0  0  0
  4 21  1  0  0  0
  5  6  1  0  0  0
  5  8  1  0  0  0
  5 22  1  0  0  0
  6  7  1  0  0  0
  6 23  1  0  0  0
  6 24  1  0  0  0
  7 25  1  0  0  0
  7 26  1  0  0  0
  7 27  1  0  0  0
  8  9  1  0  0  0
  8 28  1  0  0  0
  8 29  1  0  0  0
  9 10  1  0  0  0
 10 11  1  0  0  0
 10 30  1  0  0  0
 10 31  1  0  0  0
 11 12  1  0  0  0
 11 32  1  0  0  0
 11 33  1  0  0  0
 12 34  1  0  0  0
M  END
>  <i_m_Spin_multiplicity> (1)
1

>  <s_j_Task> (1)
Single Point

>  <s_j_QM_Method> (1)
DFT(b3lyp-d3)

>  <s_j_QM_Basis> (1)
cc-pvtz(-f)

>  <i_j_Number_of_canonical_orbitals> (1)
472

>  <i_j_Geometry_convergence_category> (1)
0

>  <r_j_Gas_Phase_Energy> (1)
-544.972948337223

>  <r_j_Final_Energy> (1)
-544.972948337223

>  <r_j_HOMO> (1)
-0.256488352562727

>  <r_j_LUMO> (1)
0.0264034440920596

>  <r_j_Polarizability> (1)
133.197959328747

>  <r_j_QM_Dipole_(debye)> (1)
1.44494619134359

>  <r_j_QM_Dipole_X_(debye)> (1)
1.12559017644968

>  <r_j_QM_Dipole_Y_(debye)> (1)
-0.546629740831617

>  <r_j_QM_Dipole_Z_(debye)> (1)
0.722573302161559

>  <r_j_Lowest_Frequency_(cm-1)> (1)
45.4527325602986

>  <r_j_Highest_Frequency_(cm-1)> (1)
3782.07159855933

>  <r_j_2nd_Lowest_Frequency_(cm-1)> (1)
56.1278501656175

>  <i_j_Num_Negative_Frequencies> (1)
0

>  <r_j_Zero_Point_Energy_(kcal/mol)> (1)
195.591329358854

>  <r_j_Entropy_(cal/mol/K)_298.15K_1.00E+00atm> (1)
119.127507429919

>  <r_j_Enthalpy_(kcal/mol)_298.15K_1.00E+00atm> (1)
9.85856698304524

>  <r_j_Free_Energy_(kcal/mol)_298.15K_1.00E+00atm> (1)
-25.6592993571852

>  <r_j_Internal_Energy_(kcal/mol)_298.15K_1.00E+00atm> (1)
9.26608139421796

>  <r_j_Heat_Capacity_(cal/mol/K)_298.15K_1.00E+00atm> (1)
54.993855718979

>  <r_j_ln(Q)_298.15K_1.00E+00atm> (1)
43.3078877209038

>  <r_j_Total_Internal_Energy_(au)_298.15K_1.00E+00atm> (1)
-544.646487270822

>  <r_j_Total_Enthalpy_(au)_298.15K_1.00E+00atm> (1)
-544.64554308493

>  <r_j_Total_Free_Energy_(au)_298.15K_1.00E+00atm> (1)
-544.702144408158

>  <r_lp_tautomer_probability> (1)
1

>  <r_epik_Ionization_Penalty> (1)
  0.0000

>  <r_epik_Ionization_Penalty_Charging> (1)
  0.0000

>  <r_epik_Ionization_Penalty_Neutral> (1)
  0.0000

>  <r_epik_State_Penalty> (1)
  0.0000

>  <r_epik_Charging_Adjusted_Penalty> (1)
0

>  <i_epik_Tot_Q> (1)
0

>  <i_epik_Tot_abs_Q> (1)
0

>  <s_lp_Force_Field> (1)
S-OPLS

>  <r_lp_Energy> (1)
7.449032

>  <b_lp_Chiralities_Consistent> (1)
1

$$$$
