15270_2-methyl dodecane
                    3D
 Schrodinger Suite 2021-3.
 41 40  0  0  1  0            999 V2000
   -5.0495    0.2949    2.5144 C   0  0  0  0  0  0
   -4.3710    0.9092    1.2865 C   0  0  0  0  0  0
   -2.8434    0.7723    1.3122 C   0  0  0  0  0  0
   -2.1626    1.3862    0.0814 C   0  0  0  0  0  0
   -0.6269    1.3487    0.1136 C   0  0  0  0  0  0
   -0.0214   -0.0612    0.0765 C   0  0  0  0  0  0
    1.5104   -0.0560    0.0081 C   0  0  0  0  0  0
    2.1261   -1.4596   -0.0267 C   0  0  0  0  0  0
    3.6578   -1.4499   -0.1032 C   0  0  0  0  0  0
    4.2670   -2.8568   -0.1509 C   0  0  0  0  0  0
    5.8070   -2.9060   -0.1237 C   0  0  0  0  0  0
    6.4361   -2.2081   -1.3394 C   0  0  0  0  0  0
    6.2972   -4.3584   -0.0272 C   0  0  0  0  0  0
   -6.1380    0.4064    2.4721 H   0  0  0  0  0  0
   -4.7006    0.7726    3.4373 H   0  0  0  0  0  0
   -4.8264   -0.7755    2.5934 H   0  0  0  0  0  0
   -4.7605    0.4349    0.3752 H   0  0  0  0  0  0
   -4.6377    1.9724    1.2121 H   0  0  0  0  0  0
   -2.4507    1.2522    2.2208 H   0  0  0  0  0  0
   -2.5831   -0.2912    1.3947 H   0  0  0  0  0  0
   -2.5185    0.8717   -0.8231 H   0  0  0  0  0  0
   -2.4896    2.4304   -0.0166 H   0  0  0  0  0  0
   -0.2409    1.9195   -0.7419 H   0  0  0  0  0  0
   -0.2700    1.8723    1.0124 H   0  0  0  0  0  0
   -0.3370   -0.6288    0.9616 H   0  0  0  0  0  0
   -0.4223   -0.6045   -0.7918 H   0  0  0  0  0  0
    1.8323    0.5037   -0.8819 H   0  0  0  0  0  0
    1.9107    0.4946    0.8716 H   0  0  0  0  0  0
    1.8087   -2.0186    0.8653 H   0  0  0  0  0  0
    1.7231   -2.0116   -0.8881 H   0  0  0  0  0  0
    3.9641   -0.8771   -0.9879 H   0  0  0  0  0  0
    4.0615   -0.9087    0.7648 H   0  0  0  0  0  0
    3.8825   -3.4348    0.7015 H   0  0  0  0  0  0
    3.9112   -3.3769   -1.0531 H   0  0  0  0  0  0
    6.1406   -2.3755    0.7814 H   0  0  0  0  0  0
    6.0978   -2.6786   -2.2713 H   0  0  0  0  0  0
    7.5289   -2.2782   -1.3102 H   0  0  0  0  0  0
    6.1749   -1.1468   -1.3873 H   0  0  0  0  0  0
    5.9867   -4.9313   -0.9099 H   0  0  0  0  0  0
    5.8889   -4.8616    0.8561 H   0  0  0  0  0  0
    7.3900   -4.4078    0.0321 H   0  0  0  0  0  0
  1  2  1  0  0  0
  1 14  1  0  0  0
  1 15  1  0  0  0
  1 16  1  0  0  0
  2  3  1  0  0  0
  2 17  1  0  0  0
  2 18  1  0  0  0
  3  4  1  0  0  0
  3 19  1  0  0  0
  3 20  1  0  0  0
  4  5  1  0  0  0
  4 21  1  0  0  0
  4 22  1  0  0  0
  5  6  1  0  0  0
  5 23  1  0  0  0
  5 24  1  0  0  0
  6  7  1  0  0  0
  6 25  1  0  0  0
  6 26  1  0  0  0
  7  8  1  0  0  0
  7 27  1  0  0  0
  7 28  1  0  0  0
  8  9  1  0  0  0
  8 29  1  0  0  0
  8 30  1  0  0  0
  9 10  1  0  0  0
  9 31  1  0  0  0
  9 32  1  0  0  0
 10 11  1  0  0  0
 10 33  1  0  0  0
 10 34  1  0  0  0
 11 12  1  0  0  0
 11 13  1  0  0  0
 11 35  1  0  0  0
 12 36  1  0  0  0
 12 37  1  0  0  0
 12 38  1  0  0  0
 13 39  1  0  0  0
 13 40  1  0  0  0
 13 41  1  0  0  0
M  END
>  <i_m_Spin_multiplicity> (1)
1

>  <s_j_Task> (1)
Single Point

>  <s_j_QM_Method> (1)
DFT(b3lyp-d3)

>  <s_j_QM_Basis> (1)
cc-pvtz(-f)

>  <i_j_Number_of_canonical_orbitals> (1)
547

>  <i_j_Geometry_convergence_category> (1)
0

>  <r_j_Gas_Phase_Energy> (1)
-512.488149979904

>  <r_j_Final_Energy> (1)
-512.488149979904

>  <r_j_HOMO> (1)
-0.300968169892682

>  <r_j_LUMO> (1)
0.0180917504813215

>  <r_j_Polarizability> (1)
162.211173472418

>  <r_j_QM_Dipole_(debye)> (1)
0.113494873204554

>  <r_j_QM_Dipole_X_(debye)> (1)
-0.00680523973158022

>  <r_j_QM_Dipole_Y_(debye)> (1)
0.108269115311337

>  <r_j_QM_Dipole_Z_(debye)> (1)
0.033355263836671

>  <r_j_Lowest_Frequency_(cm-1)> (1)
46.0405765944951

>  <r_j_Highest_Frequency_(cm-1)> (1)
3054.43776644132

>  <r_j_2nd_Lowest_Frequency_(cm-1)> (1)
61.8774446571798

>  <i_j_Num_Negative_Frequencies> (1)
0

>  <r_j_Zero_Point_Energy_(kcal/mol)> (1)
243.303286330801

>  <r_j_Entropy_(cal/mol/K)_298.15K_1.00E+00atm> (1)
125.653290427368

>  <r_j_Enthalpy_(kcal/mol)_298.15K_1.00E+00atm> (1)
10.8084553116063

>  <r_j_Free_Energy_(kcal/mol)_298.15K_1.00E+00atm> (1)
-26.6550732293135

>  <r_j_Internal_Energy_(kcal/mol)_298.15K_1.00E+00atm> (1)
10.2159697227791

>  <r_j_Heat_Capacity_(cal/mol/K)_298.15K_1.00E+00atm> (1)
62.3135300269473

>  <r_j_ln(Q)_298.15K_1.00E+00atm> (1)
44.9885596071168

>  <r_j_Total_Internal_Energy_(au)_298.15K_1.00E+00atm> (1)
-512.084141326371

>  <r_j_Total_Enthalpy_(au)_298.15K_1.00E+00atm> (1)
-512.083197140479

>  <r_j_Total_Free_Energy_(au)_298.15K_1.00E+00atm> (1)
-512.142899073808

>  <r_lp_tautomer_probability> (1)
1

>  <r_epik_Ionization_Penalty> (1)
  0.0000

>  <r_epik_Ionization_Penalty_Charging> (1)
  0.0000

>  <r_epik_Ionization_Penalty_Neutral> (1)
  0.0000

>  <r_epik_State_Penalty> (1)
  0.0000

>  <r_epik_Charging_Adjusted_Penalty> (1)
0

>  <i_epik_Tot_Q> (1)
0

>  <i_epik_Tot_abs_Q> (1)
0

>  <s_lp_Force_Field> (1)
S-OPLS

>  <r_lp_Energy> (1)
6.474034

>  <b_lp_Chiralities_Consistent> (1)
1

$$$$
