152909_Tetracosenoic acid
                    3D
 Schrodinger Suite 2021-3.
 71 70  0  0  1  0            999 V2000
   -0.8864    9.6121    7.0965 C   0  0  0  0  0  0
   -1.0861    9.1451    5.6516 C   0  0  0  0  0  0
   -0.4027    7.8056    5.3518 C   0  0  0  0  0  0
   -0.6072    7.3283    3.9098 C   0  0  0  0  0  0
    0.0630    5.9835    3.6068 C   0  0  0  0  0  0
   -0.1731    5.4978    2.1722 C   0  0  0  0  0  0
    0.4677    4.1380    1.8732 C   0  0  0  0  0  0
    0.1792    3.6260    0.4572 C   0  0  0  0  0  0
    0.7726    2.2401    0.1806 C   0  0  0  0  0  0
    0.4061    1.6837   -1.2023 C   0  0  0  0  0  0
    0.9022    0.2495   -1.4480 C   0  0  0  0  0  0
    2.4156    0.1323   -1.6957 C   0  0  0  0  0  0
    2.9510   -1.3043   -1.5834 C   0  0  0  0  0  0
    2.2899   -2.3189   -2.5257 C   0  0  0  0  0  0
    2.8134   -3.7470   -2.3285 C   0  0  0  0  0  0
    2.0322   -4.7952   -3.1316 C   0  0  0  0  0  0
    2.4783   -6.2472   -2.8939 C   0  0  0  0  0  0
    2.4017   -6.6903   -1.4249 C   0  0  0  0  0  0
    2.4964   -8.2070   -1.2301 C   0  0  0  0  0  0
    2.5898   -8.6152    0.2454 C   0  0  0  0  0  0
    2.3638  -10.1270    0.4708 C   0  0  0  0  0  0
    0.9362  -10.5307    0.2152 C   0  0  0  0  0  0
    0.4894  -11.2910   -0.7886 C   0  0  0  0  0  0
   -1.0044  -11.6137   -1.0175 C   0  0  0  0  0  0
   -1.2230  -12.3367   -2.0244 O   0  0  0  0  0  0
   -1.8096  -11.1187   -0.1864 O   0  5  0  0  0  0
   -1.3841   10.5695    7.2839 H   0  0  0  0  0  0
    0.1780    9.7383    7.3265 H   0  0  0  0  0  0
   -1.2913    8.8810    7.8059 H   0  0  0  0  0  0
   -2.1605    9.0570    5.4390 H   0  0  0  0  0  0
   -0.7026    9.9089    4.9612 H   0  0  0  0  0  0
    0.6737    7.8920    5.5595 H   0  0  0  0  0  0
   -0.7833    7.0416    6.0451 H   0  0  0  0  0  0
   -1.6847    7.2490    3.7050 H   0  0  0  0  0  0
   -0.2240    8.0907    3.2161 H   0  0  0  0  0  0
    1.1436    6.0628    3.7939 H   0  0  0  0  0  0
   -0.3104    5.2260    4.3109 H   0  0  0  0  0  0
   -1.2552    5.4344    1.9873 H   0  0  0  0  0  0
    0.2103    6.2470    1.4645 H   0  0  0  0  0  0
    1.5545    4.2027    2.0265 H   0  0  0  0  0  0
    0.1037    3.4002    2.6027 H   0  0  0  0  0  0
   -0.9091    3.5891    0.3040 H   0  0  0  0  0  0
    0.5636    4.3459   -0.2797 H   0  0  0  0  0  0
    1.8638    2.2843    0.2958 H   0  0  0  0  0  0
    0.4163    1.5386    0.9487 H   0  0  0  0  0  0
   -0.6873    1.7063   -1.3055 H   0  0  0  0  0  0
    0.7977    2.3502   -1.9847 H   0  0  0  0  0  0
    0.6254   -0.3742   -0.5853 H   0  0  0  0  0  0
    0.3650   -0.1722   -2.3052 H   0  0  0  0  0  0
    2.6470    0.5418   -2.6896 H   0  0  0  0  0  0
    2.9576    0.7602   -0.9766 H   0  0  0  0  0  0
    4.0358   -1.3018   -1.7582 H   0  0  0  0  0  0
    2.8131   -1.6477   -0.5479 H   0  0  0  0  0  0
    1.2055   -2.3226   -2.3562 H   0  0  0  0  0  0
    2.4328   -2.0045   -3.5701 H   0  0  0  0  0  0
    3.8805   -3.7950   -2.5913 H   0  0  0  0  0  0
    2.7538   -3.9925   -1.2608 H   0  0  0  0  0  0
    0.9669   -4.7106   -2.8723 H   0  0  0  0  0  0
    2.1034   -4.5577   -4.2027 H   0  0  0  0  0  0
    1.8467   -6.9102   -3.4993 H   0  0  0  0  0  0
    3.5052   -6.3860   -3.2627 H   0  0  0  0  0  0
    3.1980   -6.1979   -0.8488 H   0  0  0  0  0  0
    1.4541   -6.3392   -0.9904 H   0  0  0  0  0  0
    1.6185   -8.6908   -1.6751 H   0  0  0  0  0  0
    3.3717   -8.5980   -1.7706 H   0  0  0  0  0  0
    3.5680   -8.3092    0.6468 H   0  0  0  0  0  0
    1.8340   -8.0611    0.8207 H   0  0  0  0  0  0
    3.0435  -10.6949   -0.1803 H   0  0  0  0  0  0
    2.6502  -10.3669    1.5072 H   0  0  0  0  0  0
    0.1739  -10.1318    0.8876 H   0  0  0  0  0  0
    1.1894  -11.7232   -1.5091 H   0  0  0  0  0  0
  1  2  1  0  0  0
  1 27  1  0  0  0
  1 28  1  0  0  0
  1 29  1  0  0  0
  2  3  1  0  0  0
  2 30  1  0  0  0
  2 31  1  0  0  0
  3  4  1  0  0  0
  3 32  1  0  0  0
  3 33  1  0  0  0
  4  5  1  0  0  0
  4 34  1  0  0  0
  4 35  1  0  0  0
  5  6  1  0  0  0
  5 36  1  0  0  0
  5 37  1  0  0  0
  6  7  1  0  0  0
  6 38  1  0  0  0
  6 39  1  0  0  0
  7  8  1  0  0  0
  7 40  1  0  0  0
  7 41  1  0  0  0
  8  9  1  0  0  0
  8 42  1  0  0  0
  8 43  1  0  0  0
  9 10  1  0  0  0
  9 44  1  0  0  0
  9 45  1  0  0  0
 10 11  1  0  0  0
 10 46  1  0  0  0
 10 47  1  0  0  0
 11 12  1  0  0  0
 11 48  1  0  0  0
 11 49  1  0  0  0
 12 13  1  0  0  0
 12 50  1  0  0  0
 12 51  1  0  0  0
 13 14  1  0  0  0
 13 52  1  0  0  0
 13 53  1  0  0  0
 14 15  1  0  0  0
 14 54  1  0  0  0
 14 55  1  0  0  0
 15 16  1  0  0  0
 15 56  1  0  0  0
 15 57  1  0  0  0
 16 17  1  0  0  0
 16 58  1  0  0  0
 16 59  1  0  0  0
 17 18  1  0  0  0
 17 60  1  0  0  0
 17 61  1  0  0  0
 18 19  1  0  0  0
 18 62  1  0  0  0
 18 63  1  0  0  0
 19 20  1  0  0  0
 19 64  1  0  0  0
 19 65  1  0  0  0
 20 21  1  0  0  0
 20 66  1  0  0  0
 20 67  1  0  0  0
 21 22  1  0  0  0
 21 68  1  0  0  0
 21 69  1  0  0  0
 22 23  2  0  0  0
 22 70  1  0  0  0
 23 24  1  0  0  0
 23 71  1  0  0  0
 24 25  2  0  0  0
 24 26  1  0  0  0
M  END
>  <s_lp_Force_Field> (1)
S-OPLS

>  <r_lp_Energy> (1)
15.091694

>  <b_lp_Chiralities_Consistent> (1)
1

>  <r_epik_Ionization_Penalty> (1)
  0.0030

>  <r_epik_Ionization_Penalty_Charging> (1)
  0.0030

>  <r_epik_Ionization_Penalty_Neutral> (1)
  0.0000

>  <r_epik_State_Penalty> (1)
  0.0021

>  <r_epik_Charging_Adjusted_Penalty> (1)
0.00507066606519717

>  <i_epik_Tot_Q> (1)
-1

>  <i_epik_Tot_abs_Q> (1)
1

>  <i_m_Spin_multiplicity> (1)
1

>  <s_j_Task> (1)
Single Point

>  <s_j_QM_Method> (1)
DFT(b3lyp-d3)

>  <s_j_QM_Basis> (1)
6-31g**

>  <i_j_Number_of_canonical_orbitals> (1)
615

>  <i_j_Geometry_convergence_category> (1)
4

>  <r_j_Gas_Phase_Energy> (1)
-1092.29874112949

>  <r_j_Final_Energy> (1)
-1092.29874112949

>  <r_j_HOMO> (1)
-0.0115711925641805

>  <r_j_LUMO> (1)
0.119570716069641

>  <r_j_Polarizability> (1)
271.81055927992

>  <r_j_QM_Dipole_(debye)> (1)
46.0000713390421

>  <r_j_QM_Dipole_X_(debye)> (1)
9.31970331696707

>  <r_j_QM_Dipole_Y_(debye)> (1)
44.5988429485026

>  <r_j_QM_Dipole_Z_(debye)> (1)
6.33189552468142

>  <r_j_Lowest_Frequency_(cm-1)> (1)
-20.7025772541344

>  <r_j_Highest_Frequency_(cm-1)> (1)
3128.97192133967

>  <r_j_2nd_Lowest_Frequency_(cm-1)> (1)
8.65755410743949

>  <i_j_Num_Negative_Frequencies> (1)
1

>  <r_j_Zero_Point_Energy_(kcal/mol)> (1)
411.57663349126

>  <r_j_Entropy_(cal/mol/K)_298.15K_1.00E+00atm> (1)
192.357924135537

>  <r_j_Enthalpy_(kcal/mol)_298.15K_1.00E+00atm> (1)
19.6463504745825

>  <r_j_Free_Energy_(kcal/mol)_298.15K_1.00E+00atm> (1)
-37.7051646064279

>  <r_j_Internal_Energy_(kcal/mol)_298.15K_1.00E+00atm> (1)
19.0538648857552

>  <r_j_Heat_Capacity_(cal/mol/K)_298.15K_1.00E+00atm> (1)
114.396675163215

>  <r_j_ln(Q)_298.15K_1.00E+00atm> (1)
63.638956486788

>  <r_j_Total_Internal_Energy_(au)_298.15K_1.00E+00atm> (1)
-1091.61248774374

>  <r_j_Total_Enthalpy_(au)_298.15K_1.00E+00atm> (1)
-1091.61154355785

>  <r_j_Total_Free_Energy_(au)_298.15K_1.00E+00atm> (1)
-1091.70293901533

$$$$
