15304_3,6-dimethylphenanthrene
                    3D
 Schrodinger Suite 2021-3.
 30 32  0  0  1  0            999 V2000
   -0.0220    0.0012   -0.0001 C   0  0  0  0  0  0
    1.4878    0.0101    0.0000 C   0  0  0  0  0  0
    2.2049    1.1946    0.0000 C   0  0  0  0  0  0
    3.6193    1.2265    0.0000 C   0  0  0  0  0  0
    4.3160   -0.0153    0.0001 C   0  0  0  0  0  0
    3.5759   -1.2203    0.0001 C   0  0  0  0  0  0
    2.1983   -1.2117    0.0001 C   0  0  0  0  0  0
    5.7501   -0.0329    0.0001 C   0  0  0  0  0  0
    6.4656    1.1228    0.0000 C   0  0  0  0  0  0
    5.8100    2.3985   -0.0001 C   0  0  0  0  0  0
    4.3849    2.4664    0.0000 C   0  0  0  0  0  0
    3.7816    3.7435    0.0000 C   0  0  0  0  0  0
    4.5207    4.9179    0.0000 C   0  0  0  0  0  0
    5.9285    4.8284   -0.0002 C   0  0  0  0  0  0
    6.5547    3.5984   -0.0002 C   0  0  0  0  0  0
    3.8270    6.2612    0.0002 C   0  0  0  0  0  0
   -0.4326    1.0147   -0.0002 H   0  0  0  0  0  0
   -0.4138   -0.5206    0.8810 H   0  0  0  0  0  0
   -0.4137   -0.5206   -0.8812 H   0  0  0  0  0  0
    1.6489    2.1257   -0.0001 H   0  0  0  0  0  0
    4.1167   -2.1631    0.0002 H   0  0  0  0  0  0
    1.6477   -2.1492    0.0001 H   0  0  0  0  0  0
    6.2553   -0.9953    0.0002 H   0  0  0  0  0  0
    7.5523    1.0998    0.0000 H   0  0  0  0  0  0
    2.6993    3.8248    0.0001 H   0  0  0  0  0  0
    6.5214    5.7393   -0.0003 H   0  0  0  0  0  0
    7.6402    3.5387   -0.0003 H   0  0  0  0  0  0
    4.5466    7.0848    0.0004 H   0  0  0  0  0  0
    3.1865    6.3775    0.8819 H   0  0  0  0  0  0
    3.1866    6.3778   -0.8817 H   0  0  0  0  0  0
  1  2  1  0  0  0
  1 17  1  0  0  0
  1 18  1  0  0  0
  1 19  1  0  0  0
  2  7  1  0  0  0
  2  3  2  0  0  0
  3  4  1  0  0  0
  3 20  1  0  0  0
  4 11  1  0  0  0
  4  5  2  0  0  0
  5  6  1  0  0  0
  5  8  1  0  0  0
  6  7  2  0  0  0
  6 21  1  0  0  0
  7 22  1  0  0  0
  8  9  2  0  0  0
  8 23  1  0  0  0
  9 10  1  0  0  0
  9 24  1  0  0  0
 10 15  1  0  0  0
 10 11  2  0  0  0
 11 12  1  0  0  0
 12 13  2  0  0  0
 12 25  1  0  0  0
 13 14  1  0  0  0
 13 16  1  0  0  0
 14 15  2  0  0  0
 14 26  1  0  0  0
 15 27  1  0  0  0
 16 28  1  0  0  0
 16 29  1  0  0  0
 16 30  1  0  0  0
M  END
>  <i_m_Spin_multiplicity> (1)
1

>  <s_j_Task> (1)
Single Point

>  <s_j_QM_Method> (1)
DFT(b3lyp-d3)

>  <s_j_QM_Basis> (1)
cc-pvtz(-f)

>  <i_j_Number_of_canonical_orbitals> (1)
479

>  <i_j_Geometry_convergence_category> (1)
0

>  <r_j_Gas_Phase_Energy> (1)
-618.381491831087

>  <r_j_Final_Energy> (1)
-618.381491831087

>  <r_j_HOMO> (1)
-0.2012202640187

>  <r_j_LUMO> (1)
-0.0336582566147197

>  <r_j_Polarizability> (1)
194.509434205424

>  <r_j_QM_Dipole_(debye)> (1)
0.684510965592951

>  <r_j_QM_Dipole_X_(debye)> (1)
-0.616501741717154

>  <r_j_QM_Dipole_Y_(debye)> (1)
0.297457331703285

>  <r_j_QM_Dipole_Z_(debye)> (1)
-1.7107664215604e-05

>  <r_j_Lowest_Frequency_(cm-1)> (1)
86.7679700017382

>  <r_j_Highest_Frequency_(cm-1)> (1)
3149.16200282311

>  <r_j_2nd_Lowest_Frequency_(cm-1)> (1)
115.674550295326

>  <i_j_Num_Negative_Frequencies> (1)
0

>  <r_j_Zero_Point_Energy_(kcal/mol)> (1)
155.779004649233

>  <r_j_Entropy_(cal/mol/K)_298.15K_1.00E+00atm> (1)
107.993330966195

>  <r_j_Enthalpy_(kcal/mol)_298.15K_1.00E+00atm> (1)
8.40677265802175

>  <r_j_Free_Energy_(kcal/mol)_298.15K_1.00E+00atm> (1)
-23.7914389695492

>  <r_j_Internal_Energy_(kcal/mol)_298.15K_1.00E+00atm> (1)
7.81428706919448

>  <r_j_Heat_Capacity_(cal/mol/K)_298.15K_1.00E+00atm> (1)
51.9443371500351

>  <r_j_ln(Q)_298.15K_1.00E+00atm> (1)
40.1553040583491

>  <r_j_Total_Internal_Energy_(au)_298.15K_1.00E+00atm> (1)
-618.120789324528

>  <r_j_Total_Enthalpy_(au)_298.15K_1.00E+00atm> (1)
-618.119845138636

>  <r_j_Total_Free_Energy_(au)_298.15K_1.00E+00atm> (1)
-618.171156255307

>  <r_lp_tautomer_probability> (1)
1

>  <r_epik_Ionization_Penalty> (1)
  0.0000

>  <r_epik_Ionization_Penalty_Charging> (1)
  0.0000

>  <r_epik_Ionization_Penalty_Neutral> (1)
  0.0000

>  <r_epik_State_Penalty> (1)
  0.0000

>  <r_epik_Charging_Adjusted_Penalty> (1)
0

>  <i_epik_Tot_Q> (1)
0

>  <i_epik_Tot_abs_Q> (1)
0

>  <s_lp_Force_Field> (1)
S-OPLS

>  <r_lp_Energy> (1)
26.12

>  <b_lp_Chiralities_Consistent> (1)
1

$$$$
