15327_1-Methyl-3-butylbenzene
                    3D
 Schrodinger Suite 2021-3.
 27 27  0  0  1  0            999 V2000
   -2.1050    1.4934   -0.0148 C   0  0  0  0  0  0
   -0.5740    1.4573    0.0017 C   0  0  0  0  0  0
   -0.0113    0.0321    0.0079 C   0  0  0  0  0  0
    1.5286   -0.0114    0.0234 C   0  0  0  0  0  0
    2.0655   -1.4250    0.0217 C   0  0  0  0  0  0
    2.3025   -2.1048    1.2202 C   0  0  0  0  0  0
    2.7460   -3.4280    1.2057 C   0  0  0  0  0  0
    2.9572   -4.0850   -0.0040 C   0  0  0  0  0  0
    2.7273   -3.4275   -1.2203 C   0  0  0  0  0  0
    2.2837   -2.1027   -1.1851 C   0  0  0  0  0  0
    2.9599   -4.1430   -2.5309 C   0  0  0  0  0  0
   -2.4838    2.5207   -0.0202 H   0  0  0  0  0  0
   -2.5203    0.9888    0.8651 H   0  0  0  0  0  0
   -2.5011    0.9865   -0.9022 H   0  0  0  0  0  0
   -0.1827    1.9967   -0.8718 H   0  0  0  0  0  0
   -0.2015    1.9971    0.8831 H   0  0  0  0  0  0
   -0.3929   -0.5143    0.8810 H   0  0  0  0  0  0
   -0.3751   -0.5142   -0.8730 H   0  0  0  0  0  0
    1.9102    0.5335   -0.8495 H   0  0  0  0  0  0
    1.8929    0.5246    0.9091 H   0  0  0  0  0  0
    2.1403   -1.5958    2.1673 H   0  0  0  0  0  0
    2.9311   -3.9468    2.1425 H   0  0  0  0  0  0
    3.3059   -5.1151   -0.0087 H   0  0  0  0  0  0
    2.1031   -1.5797   -2.1223 H   0  0  0  0  0  0
    2.7489   -3.4963   -3.3872 H   0  0  0  0  0  0
    2.3217   -5.0302   -2.6163 H   0  0  0  0  0  0
    3.9976   -4.4856   -2.6172 H   0  0  0  0  0  0
  1  2  1  0  0  0
  1 12  1  0  0  0
  1 13  1  0  0  0
  1 14  1  0  0  0
  2  3  1  0  0  0
  2 15  1  0  0  0
  2 16  1  0  0  0
  3  4  1  0  0  0
  3 17  1  0  0  0
  3 18  1  0  0  0
  4  5  1  0  0  0
  4 19  1  0  0  0
  4 20  1  0  0  0
  5 10  1  0  0  0
  5  6  2  0  0  0
  6  7  1  0  0  0
  6 21  1  0  0  0
  7  8  2  0  0  0
  7 22  1  0  0  0
  8  9  1  0  0  0
  8 23  1  0  0  0
  9 10  2  0  0  0
  9 11  1  0  0  0
 10 24  1  0  0  0
 11 25  1  0  0  0
 11 26  1  0  0  0
 11 27  1  0  0  0
M  END
>  <i_m_Spin_multiplicity> (1)
1

>  <s_j_Task> (1)
Single Point

>  <s_j_QM_Method> (1)
DFT(b3lyp-d3)

>  <s_j_QM_Basis> (1)
cc-pvtz(-f)

>  <i_j_Number_of_canonical_orbitals> (1)
389

>  <i_j_Geometry_convergence_category> (1)
0

>  <r_j_Gas_Phase_Energy> (1)
-428.983919488282

>  <r_j_Final_Energy> (1)
-428.983919488282

>  <r_j_HOMO> (1)
-0.250237390617673

>  <r_j_LUMO> (1)
-0.0218317043737211

>  <r_j_Polarizability> (1)
128.767319718842

>  <r_j_QM_Dipole_(debye)> (1)
0.3369446752943

>  <r_j_QM_Dipole_X_(debye)> (1)
-0.142610720248443

>  <r_j_QM_Dipole_Y_(debye)> (1)
0.127922044115883

>  <r_j_QM_Dipole_Z_(debye)> (1)
-0.277181975078857

>  <r_j_Lowest_Frequency_(cm-1)> (1)
62.0700141362693

>  <r_j_Highest_Frequency_(cm-1)> (1)
3135.3841449445

>  <r_j_2nd_Lowest_Frequency_(cm-1)> (1)
91.4337948142169

>  <i_j_Num_Negative_Frequencies> (1)
0

>  <r_j_Zero_Point_Energy_(kcal/mol)> (1)
150.934694126673

>  <r_j_Entropy_(cal/mol/K)_298.15K_1.00E+00atm> (1)
101.537413244598

>  <r_j_Enthalpy_(kcal/mol)_298.15K_1.00E+00atm> (1)
7.49643155764997

>  <r_j_Free_Energy_(kcal/mol)_298.15K_1.00E+00atm> (1)
-22.7769482012269

>  <r_j_Internal_Energy_(kcal/mol)_298.15K_1.00E+00atm> (1)
6.90394596882269

>  <r_j_Heat_Capacity_(cal/mol/K)_298.15K_1.00E+00atm> (1)
42.921300711891

>  <r_j_ln(Q)_298.15K_1.00E+00atm> (1)
38.4430417055544

>  <r_j_Total_Internal_Energy_(au)_298.15K_1.00E+00atm> (1)
-428.732387602882

>  <r_j_Total_Enthalpy_(au)_298.15K_1.00E+00atm> (1)
-428.731443416989

>  <r_j_Total_Free_Energy_(au)_298.15K_1.00E+00atm> (1)
-428.779687118808

>  <r_lp_tautomer_probability> (1)
1

>  <r_epik_Ionization_Penalty> (1)
  0.0000

>  <r_epik_Ionization_Penalty_Charging> (1)
  0.0000

>  <r_epik_Ionization_Penalty_Neutral> (1)
  0.0000

>  <r_epik_State_Penalty> (1)
  0.0000

>  <r_epik_Charging_Adjusted_Penalty> (1)
0

>  <i_epik_Tot_Q> (1)
0

>  <i_epik_Tot_abs_Q> (1)
0

>  <s_lp_Force_Field> (1)
S-OPLS

>  <r_lp_Energy> (1)
8.672175

>  <b_lp_Chiralities_Consistent> (1)
1

$$$$
