15417_Cyclopentylcyclopentane
                    3D
 Schrodinger Suite 2021-3.
 28 29  0  0  1  0            999 V2000
   -2.0430   -1.2015   -0.7745 C   0  0  0  0  0  0
   -2.0762   -1.0751    0.7794 C   0  0  0  0  0  0
   -0.6164   -0.8127    1.2001 C   0  0  0  0  0  0
   -0.0113   -0.0537    0.0049 C   0  0  0  0  0  0
   -0.6013   -0.8189   -1.1977 C   0  0  0  0  0  0
    1.5125    0.0514    0.0064 C   0  0  0  0  0  0
    2.1050    0.8073   -1.2018 C   0  0  0  0  0  0
    3.5378    1.2209   -0.7723 C   0  0  0  0  0  0
    3.5767    1.0666    0.7780 C   0  0  0  0  0  0
    2.1156    0.8173    1.1981 C   0  0  0  0  0  0
   -2.7763   -0.5284   -1.2306 H   0  0  0  0  0  0
   -2.3002   -2.2118   -1.1075 H   0  0  0  0  0  0
   -2.7030   -0.2258    1.0738 H   0  0  0  0  0  0
   -2.4983   -1.9603    1.2651 H   0  0  0  0  0  0
   -0.5351   -0.2655    2.1447 H   0  0  0  0  0  0
   -0.0778   -1.7624    1.3275 H   0  0  0  0  0  0
   -0.4239    0.9688    0.0041 H   0  0  0  0  0  0
   -0.0022   -1.7245   -1.3641 H   0  0  0  0  0  0
   -0.5679   -0.2411   -2.1265 H   0  0  0  0  0  0
    1.9245   -0.9712    0.0148 H   0  0  0  0  0  0
    2.0897    0.2134   -2.1208 H   0  0  0  0  0  0
    1.4939    1.7001   -1.3905 H   0  0  0  0  0  0
    4.2918    0.5822   -1.2436 H   0  0  0  0  0  0
    3.7621    2.2462   -1.0829 H   0  0  0  0  0  0
    4.1894    0.2004    1.0533 H   0  0  0  0  0  0
    4.0164    1.9350    1.2780 H   0  0  0  0  0  0
    1.5823    1.7714    1.3157 H   0  0  0  0  0  0
    2.0284    0.2781    2.1467 H   0  0  0  0  0  0
  1  5  1  0  0  0
  1  2  1  0  0  0
  1 11  1  0  0  0
  1 12  1  0  0  0
  2  3  1  0  0  0
  2 13  1  0  0  0
  2 14  1  0  0  0
  3  4  1  0  0  0
  3 15  1  0  0  0
  3 16  1  0  0  0
  4  5  1  0  0  0
  4  6  1  0  0  0
  4 17  1  0  0  0
  5 18  1  0  0  0
  5 19  1  0  0  0
  6 10  1  0  0  0
  6  7  1  0  0  0
  6 20  1  0  0  0
  7  8  1  0  0  0
  7 21  1  0  0  0
  7 22  1  0  0  0
  8  9  1  0  0  0
  8 23  1  0  0  0
  8 24  1  0  0  0
  9 10  1  0  0  0
  9 25  1  0  0  0
  9 26  1  0  0  0
 10 27  1  0  0  0
 10 28  1  0  0  0
M  END
>  <i_m_Spin_multiplicity> (1)
1

>  <s_j_Task> (1)
Single Point

>  <s_j_QM_Method> (1)
DFT(b3lyp-d3)

>  <s_j_QM_Basis> (1)
cc-pvtz(-f)

>  <i_j_Number_of_canonical_orbitals> (1)
387

>  <i_j_Geometry_convergence_category> (1)
0

>  <r_j_Gas_Phase_Energy> (1)
-392.06482344622

>  <r_j_Final_Energy> (1)
-392.06482344622

>  <r_j_HOMO> (1)
-0.297956264198748

>  <r_j_LUMO> (1)
0.0265156874006741

>  <r_j_Polarizability> (1)
112.683663206973

>  <r_j_QM_Dipole_(debye)> (1)
0.0166550037776962

>  <r_j_QM_Dipole_X_(debye)> (1)
0.00122948393114509

>  <r_j_QM_Dipole_Y_(debye)> (1)
0.000480054535216577

>  <r_j_QM_Dipole_Z_(debye)> (1)
0.0166026223152052

>  <r_j_Lowest_Frequency_(cm-1)> (1)
107.550788997744

>  <r_j_Highest_Frequency_(cm-1)> (1)
3048.33405070732

>  <r_j_2nd_Lowest_Frequency_(cm-1)> (1)
119.779695653574

>  <i_j_Num_Negative_Frequencies> (1)
0

>  <r_j_Zero_Point_Energy_(kcal/mol)> (1)
163.922077886396

>  <r_j_Entropy_(cal/mol/K)_298.15K_1.00E+00atm> (1)
95.0501732802173

>  <r_j_Enthalpy_(kcal/mol)_298.15K_1.00E+00atm> (1)
6.58237625225412

>  <r_j_Free_Energy_(kcal/mol)_298.15K_1.00E+00atm> (1)
-21.7568329112427

>  <r_j_Internal_Energy_(kcal/mol)_298.15K_1.00E+00atm> (1)
5.98989066342684

>  <r_j_Heat_Capacity_(cal/mol/K)_298.15K_1.00E+00atm> (1)
38.0683322427491

>  <r_j_ln(Q)_298.15K_1.00E+00atm> (1)
36.7212862582981

>  <r_j_Total_Internal_Energy_(au)_298.15K_1.00E+00atm> (1)
-391.794051487113

>  <r_j_Total_Enthalpy_(au)_298.15K_1.00E+00atm> (1)
-391.793107301221

>  <r_j_Total_Free_Energy_(au)_298.15K_1.00E+00atm> (1)
-391.838268705978

>  <r_lp_tautomer_probability> (1)
1

>  <r_epik_Ionization_Penalty> (1)
  0.0000

>  <r_epik_Ionization_Penalty_Charging> (1)
  0.0000

>  <r_epik_Ionization_Penalty_Neutral> (1)
  0.0000

>  <r_epik_State_Penalty> (1)
  0.0000

>  <r_epik_Charging_Adjusted_Penalty> (1)
0

>  <i_epik_Tot_Q> (1)
0

>  <i_epik_Tot_abs_Q> (1)
0

>  <s_lp_Force_Field> (1)
S-OPLS

>  <r_lp_Energy> (1)
13.7039

>  <b_lp_Chiralities_Consistent> (1)
1

$$$$
