15504_Ethylcyclohexane
                    3D
 Schrodinger Suite 2021-3.
 24 24  0  0  1  0            999 V2000
   -0.0708    0.1188   -0.0717 C   0  0  0  0  0  0
    1.4554    0.0054    0.0086 C   0  0  0  0  0  0
    1.9927   -1.4359    0.0502 C   0  0  0  0  0  0
    3.5302   -1.4527   -0.0507 C   0  0  0  0  0  0
    4.1043   -2.8768   -0.0135 C   0  0  0  0  0  0
    3.6419   -3.6309    1.2418 C   0  0  0  0  0  0
    2.1100   -3.6337    1.3472 C   0  0  0  0  0  0
    1.5393   -2.2073    1.3051 C   0  0  0  0  0  0
   -0.3827    1.1629   -0.1768 H   0  0  0  0  0  0
   -0.5585   -0.2797    0.8234 H   0  0  0  0  0  0
   -0.4602   -0.4334   -0.9349 H   0  0  0  0  0  0
    1.8960    0.5162   -0.8583 H   0  0  0  0  0  0
    1.8188    0.5459    0.8944 H   0  0  0  0  0  0
    1.5959   -1.9694   -0.8297 H   0  0  0  0  0  0
    3.8475   -0.9393   -0.9673 H   0  0  0  0  0  0
    3.9442   -0.8742    0.7890 H   0  0  0  0  0  0
    3.7682   -3.4239   -0.9061 H   0  0  0  0  0  0
    5.1996   -2.8454   -0.0607 H   0  0  0  0  0  0
    4.0275   -4.6575    1.2366 H   0  0  0  0  0  0
    4.0630   -3.1410    2.1315 H   0  0  0  0  0  0
    1.6934   -4.2114    0.5095 H   0  0  0  0  0  0
    1.7901   -4.1413    2.2652 H   0  0  0  0  0  0
    1.8751   -1.6551    2.1962 H   0  0  0  0  0  0
    0.4455   -2.2461    1.3564 H   0  0  0  0  0  0
  1  2  1  0  0  0
  1  9  1  0  0  0
  1 10  1  0  0  0
  1 11  1  0  0  0
  2  3  1  0  0  0
  2 12  1  0  0  0
  2 13  1  0  0  0
  3  8  1  0  0  0
  3  4  1  0  0  0
  3 14  1  0  0  0
  4  5  1  0  0  0
  4 15  1  0  0  0
  4 16  1  0  0  0
  5  6  1  0  0  0
  5 17  1  0  0  0
  5 18  1  0  0  0
  6  7  1  0  0  0
  6 19  1  0  0  0
  6 20  1  0  0  0
  7  8  1  0  0  0
  7 21  1  0  0  0
  7 22  1  0  0  0
  8 23  1  0  0  0
  8 24  1  0  0  0
M  END
>  <i_m_Spin_multiplicity> (1)
1

>  <s_j_Task> (1)
Single Point

>  <s_j_QM_Method> (1)
DFT(b3lyp-d3)

>  <s_j_QM_Basis> (1)
cc-pvtz(-f)

>  <i_j_Number_of_canonical_orbitals> (1)
325

>  <i_j_Geometry_convergence_category> (1)
0

>  <r_j_Gas_Phase_Energy> (1)
-314.632535457765

>  <r_j_Final_Energy> (1)
-314.632535457765

>  <r_j_HOMO> (1)
-0.306700807931286

>  <r_j_LUMO> (1)
0.0147128539717197

>  <r_j_Polarizability> (1)
93.6747934967914

>  <r_j_QM_Dipole_(debye)> (1)
0.0527466681802704

>  <r_j_QM_Dipole_X_(debye)> (1)
0.0229320997068413

>  <r_j_QM_Dipole_Y_(debye)> (1)
-0.0396470717452804

>  <r_j_QM_Dipole_Z_(debye)> (1)
-0.0261617948386502

>  <r_j_Lowest_Frequency_(cm-1)> (1)
120.50346613146

>  <r_j_Highest_Frequency_(cm-1)> (1)
3053.10269980312

>  <r_j_2nd_Lowest_Frequency_(cm-1)> (1)
168.197750758664

>  <i_j_Num_Negative_Frequencies> (1)
0

>  <r_j_Zero_Point_Energy_(kcal/mol)> (1)
141.816662607031

>  <r_j_Entropy_(cal/mol/K)_298.15K_1.00E+00atm> (1)
86.4416157368572

>  <r_j_Enthalpy_(kcal/mol)_298.15K_1.00E+00atm> (1)
5.67695702836101

>  <r_j_Free_Energy_(kcal/mol)_298.15K_1.00E+00atm> (1)
-20.095610703583

>  <r_j_Internal_Energy_(kcal/mol)_298.15K_1.00E+00atm> (1)
5.08447143953373

>  <r_j_Heat_Capacity_(cal/mol/K)_298.15K_1.00E+00atm> (1)
32.7060823462612

>  <r_j_ln(Q)_298.15K_1.00E+00atm> (1)
33.9174675005326

>  <r_j_Total_Internal_Energy_(au)_298.15K_1.00E+00atm> (1)
-314.398433597842

>  <r_j_Total_Enthalpy_(au)_298.15K_1.00E+00atm> (1)
-314.397489411949

>  <r_j_Total_Free_Energy_(au)_298.15K_1.00E+00atm> (1)
-314.438560613205

>  <r_lp_tautomer_probability> (1)
1

>  <r_epik_Ionization_Penalty> (1)
  0.0000

>  <r_epik_Ionization_Penalty_Charging> (1)
  0.0000

>  <r_epik_Ionization_Penalty_Neutral> (1)
  0.0000

>  <r_epik_State_Penalty> (1)
  0.0000

>  <r_epik_Charging_Adjusted_Penalty> (1)
0

>  <i_epik_Tot_Q> (1)
0

>  <i_epik_Tot_abs_Q> (1)
0

>  <s_lp_Force_Field> (1)
S-OPLS

>  <r_lp_Energy> (1)
8.28732

>  <b_lp_Chiralities_Consistent> (1)
1

$$$$
