15507_1,2,3-trimethylcyclohexane
                    3D
 Schrodinger Suite 2021-3.
 27 27  0  0  1  0            999 V2000
   -0.0350   -0.0679   -0.0672 C   0  0  0  0  0  0
    1.4978    0.0050   -0.0060 C   0  0  0  0  0  0
    2.0378    0.7038   -1.2671 C   0  0  0  0  0  0
    3.5661    0.7868   -1.2761 C   0  0  0  0  0  0
    4.0752    1.4779   -0.0088 C   0  0  0  0  0  0
    3.5700    0.7927    1.2740 C   0  0  0  0  0  0
    2.0204    0.6948    1.2832 C   0  0  0  0  0  0
    1.5035   -0.0047    2.5501 C   0  0  0  0  0  0
    4.1322    1.5162    2.5064 C   0  0  0  0  0  0
   -0.4758    0.9316    0.0352 H   0  0  0  0  0  0
   -0.4573   -0.7019    0.7165 H   0  0  0  0  0  0
   -0.3625   -0.4762   -1.0293 H   0  0  0  0  0  0
    1.8890   -1.0256   -0.0032 H   0  0  0  0  0  0
    1.6780    0.1781   -2.1603 H   0  0  0  0  0  0
    1.6174    1.7197   -1.3148 H   0  0  0  0  0  0
    3.9845   -0.2283   -1.3291 H   0  0  0  0  0  0
    3.9168    1.3166   -2.1699 H   0  0  0  0  0  0
    5.1720    1.5053   -0.0025 H   0  0  0  0  0  0
    3.7388    2.5256   -0.0050 H   0  0  0  0  0  0
    3.9596   -0.2386    1.2761 H   0  0  0  0  0  0
    1.6300    1.7267    1.2801 H   0  0  0  0  0  0
    1.8685   -1.0385    2.5977 H   0  0  0  0  0  0
    0.4118   -0.0352    2.5802 H   0  0  0  0  0  0
    1.8315    0.5064    3.4584 H   0  0  0  0  0  0
    3.6892    2.5150    2.6060 H   0  0  0  0  0  0
    5.2163    1.6433    2.4166 H   0  0  0  0  0  0
    3.9439    0.9724    3.4355 H   0  0  0  0  0  0
  1  2  1  0  0  0
  1 10  1  0  0  0
  1 11  1  0  0  0
  1 12  1  0  0  0
  2  7  1  0  0  0
  2  3  1  0  0  0
  2 13  1  0  0  0
  3  4  1  0  0  0
  3 14  1  0  0  0
  3 15  1  0  0  0
  4  5  1  0  0  0
  4 16  1  0  0  0
  4 17  1  0  0  0
  5  6  1  0  0  0
  5 18  1  0  0  0
  5 19  1  0  0  0
  6  7  1  0  0  0
  6  9  1  0  0  0
  6 20  1  0  0  0
  7  8  1  0  0  0
  7 21  1  0  0  0
  8 22  1  0  0  0
  8 23  1  0  0  0
  8 24  1  0  0  0
  9 25  1  0  0  0
  9 26  1  0  0  0
  9 27  1  0  0  0
M  END
>  <i_m_Spin_multiplicity> (1)
1

>  <s_j_Task> (1)
Single Point

>  <s_j_QM_Method> (1)
DFT(b3lyp-d3)

>  <s_j_QM_Basis> (1)
cc-pvtz(-f)

>  <i_j_Number_of_canonical_orbitals> (1)
365

>  <i_j_Geometry_convergence_category> (1)
3

>  <r_j_Gas_Phase_Energy> (1)
-353.9633230122

>  <r_j_Final_Energy> (1)
-353.9633230122

>  <r_j_HOMO> (1)
-0.287984033428777

>  <r_j_LUMO> (1)
0.0330542600104372

>  <r_j_Polarizability> (1)
105.27647615134

>  <r_j_QM_Dipole_(debye)> (1)
0.111022302232215

>  <r_j_QM_Dipole_X_(debye)> (1)
0.0645459665450432

>  <r_j_QM_Dipole_Y_(debye)> (1)
-0.0599777925223684

>  <r_j_QM_Dipole_Z_(debye)> (1)
-0.067545793354221

>  <r_j_Lowest_Frequency_(cm-1)> (1)
102.887487604839

>  <r_j_Highest_Frequency_(cm-1)> (1)
3074.40288675275

>  <r_j_2nd_Lowest_Frequency_(cm-1)> (1)
168.910582614621

>  <i_j_Num_Negative_Frequencies> (1)
0

>  <r_j_Zero_Point_Energy_(kcal/mol)> (1)
159.108649163753

>  <r_j_Entropy_(cal/mol/K)_298.15K_1.00E+00atm> (1)
91.9403995425033

>  <r_j_Enthalpy_(kcal/mol)_298.15K_1.00E+00atm> (1)
6.52435911835498

>  <r_j_Free_Energy_(kcal/mol)_298.15K_1.00E+00atm> (1)
-20.8876710052424

>  <r_j_Internal_Energy_(kcal/mol)_298.15K_1.00E+00atm> (1)
5.9318735295277

>  <r_j_Heat_Capacity_(cal/mol/K)_298.15K_1.00E+00atm> (1)
38.7916167461494

>  <r_j_ln(Q)_298.15K_1.00E+00atm> (1)
35.2543106518186

>  <r_j_Total_Internal_Energy_(au)_298.15K_1.00E+00atm> (1)
-353.700314196264

>  <r_j_Total_Enthalpy_(au)_298.15K_1.00E+00atm> (1)
-353.699370010371

>  <r_j_Total_Free_Energy_(au)_298.15K_1.00E+00atm> (1)
-353.743053861268

>  <r_lp_tautomer_probability> (1)
1

>  <r_epik_Ionization_Penalty> (1)
  0.0000

>  <r_epik_Ionization_Penalty_Charging> (1)
  0.0000

>  <r_epik_Ionization_Penalty_Neutral> (1)
  0.0000

>  <r_epik_State_Penalty> (1)
  0.0000

>  <r_epik_Charging_Adjusted_Penalty> (1)
0

>  <i_epik_Tot_Q> (1)
0

>  <i_epik_Tot_abs_Q> (1)
0

>  <s_lp_Force_Field> (1)
S-OPLS

>  <r_lp_Energy> (1)
15.751

>  <b_lp_Chiralities_Consistent> (1)
1

$$$$
