15564_6-Methylchrysene
                    3D
 Schrodinger Suite 2021-3.
 33 36  0  0  1  0            999 V2000
   -0.0363    0.0406    0.0002 C   0  0  0  0  0  0
    1.4727    0.0141    0.0003 C   0  0  0  0  0  0
    2.1810    1.1835    0.0004 C   0  0  0  0  0  0
    3.6090    1.2367    0.0004 C   0  0  0  0  0  0
    4.3335    0.0225    0.0004 C   0  0  0  0  0  0
    5.7635    0.0714    0.0005 C   0  0  0  0  0  0
    6.4392    1.2545    0.0004 C   0  0  0  0  0  0
    5.7462    2.5005    0.0001 C   0  0  0  0  0  0
    6.4546    3.7265   -0.0002 C   0  0  0  0  0  0
    5.7872    4.9317   -0.0006 C   0  0  0  0  0  0
    4.3780    4.9454   -0.0005 C   0  0  0  0  0  0
    3.6662    3.7625   -0.0002 C   0  0  0  0  0  0
    4.3190    2.5031    0.0002 C   0  0  0  0  0  0
    3.6133   -1.2382    0.0002 C   0  0  0  0  0  0
    4.2774   -2.4916   -0.0001 C   0  0  0  0  0  0
    3.5802   -3.6828   -0.0005 C   0  0  0  0  0  0
    2.1735   -3.6772   -0.0006 C   0  0  0  0  0  0
    1.4946   -2.4767   -0.0003 C   0  0  0  0  0  0
    2.1839   -1.2381    0.0001 C   0  0  0  0  0  0
   -0.4088    1.0682    0.0004 H   0  0  0  0  0  0
   -0.4483   -0.4649    0.8816 H   0  0  0  0  0  0
   -0.4482   -0.4644   -0.8816 H   0  0  0  0  0  0
    1.6210    2.1113    0.0005 H   0  0  0  0  0  0
    6.3336   -0.8494    0.0007 H   0  0  0  0  0  0
    7.5260    1.2636    0.0005 H   0  0  0  0  0  0
    7.5414    3.6983   -0.0003 H   0  0  0  0  0  0
    6.3412    5.8657   -0.0009 H   0  0  0  0  0  0
    3.8472    5.8927   -0.0008 H   0  0  0  0  0  0
    2.5838    3.8131   -0.0002 H   0  0  0  0  0  0
    5.3599   -2.5303   -0.0001 H   0  0  0  0  0  0
    4.1201   -4.6250   -0.0008 H   0  0  0  0  0  0
    1.6242   -4.6141   -0.0009 H   0  0  0  0  0  0
    0.4103   -2.4813   -0.0004 H   0  0  0  0  0  0
  1  2  1  0  0  0
  1 20  1  0  0  0
  1 21  1  0  0  0
  1 22  1  0  0  0
  2 19  1  0  0  0
  2  3  2  0  0  0
  3  4  1  0  0  0
  3 23  1  0  0  0
  4 13  1  0  0  0
  4  5  2  0  0  0
  5  6  1  0  0  0
  5 14  1  0  0  0
  6  7  2  0  0  0
  6 24  1  0  0  0
  7  8  1  0  0  0
  7 25  1  0  0  0
  8 13  1  0  0  0
  8  9  2  0  0  0
  9 10  1  0  0  0
  9 26  1  0  0  0
 10 11  2  0  0  0
 10 27  1  0  0  0
 11 12  1  0  0  0
 11 28  1  0  0  0
 12 13  2  0  0  0
 12 29  1  0  0  0
 14 19  1  0  0  0
 14 15  2  0  0  0
 15 16  1  0  0  0
 15 30  1  0  0  0
 16 17  2  0  0  0
 16 31  1  0  0  0
 17 18  1  0  0  0
 17 32  1  0  0  0
 18 19  2  0  0  0
 18 33  1  0  0  0
M  END
>  <i_m_Spin_multiplicity> (1)
1

>  <s_j_Task> (1)
Single Point

>  <s_j_QM_Method> (1)
DFT(b3lyp-d3)

>  <s_j_QM_Basis> (1)
cc-pvtz(-f)

>  <i_j_Number_of_canonical_orbitals> (1)
544

>  <i_j_Geometry_convergence_category> (1)
3

>  <r_j_Gas_Phase_Energy> (1)
-732.740176738748

>  <r_j_Final_Energy> (1)
-732.740176738748

>  <r_j_HOMO> (1)
-0.20498962046818

>  <r_j_LUMO> (1)
-0.0545584623052989

>  <r_j_Polarizability> (1)
235.060209474014

>  <r_j_QM_Dipole_(debye)> (1)
0.43381765605326

>  <r_j_QM_Dipole_X_(debye)> (1)
-0.421567327897545

>  <r_j_QM_Dipole_Y_(debye)> (1)
-0.102364007270656

>  <r_j_QM_Dipole_Z_(debye)> (1)
-0.000597300896490275

>  <r_j_Lowest_Frequency_(cm-1)> (1)
66.3874956237892

>  <r_j_Highest_Frequency_(cm-1)> (1)
3173.58589621637

>  <r_j_2nd_Lowest_Frequency_(cm-1)> (1)
98.1986316014343

>  <i_j_Num_Negative_Frequencies> (1)
0

>  <r_j_Zero_Point_Energy_(kcal/mol)> (1)
168.277041431495

>  <r_j_Entropy_(cal/mol/K)_298.15K_1.00E+00atm> (1)
111.61506240997

>  <r_j_Enthalpy_(kcal/mol)_298.15K_1.00E+00atm> (1)
8.89622305098743

>  <r_j_Free_Energy_(kcal/mol)_298.15K_1.00E+00atm> (1)
-24.3818078065452

>  <r_j_Internal_Energy_(kcal/mol)_298.15K_1.00E+00atm> (1)
8.30373746216016

>  <r_j_Heat_Capacity_(cal/mol/K)_298.15K_1.00E+00atm> (1)
57.3382848302303

>  <r_j_ln(Q)_298.15K_1.00E+00atm> (1)
41.1517313945221

>  <r_j_Total_Internal_Energy_(au)_298.15K_1.00E+00atm> (1)
-732.458777353821

>  <r_j_Total_Enthalpy_(au)_298.15K_1.00E+00atm> (1)
-732.457833167929

>  <r_j_Total_Free_Energy_(au)_298.15K_1.00E+00atm> (1)
-732.510865086089

>  <r_lp_tautomer_probability> (1)
1

>  <r_epik_Ionization_Penalty> (1)
  0.0000

>  <r_epik_Ionization_Penalty_Charging> (1)
  0.0000

>  <r_epik_Ionization_Penalty_Neutral> (1)
  0.0000

>  <r_epik_State_Penalty> (1)
  0.0000

>  <r_epik_Charging_Adjusted_Penalty> (1)
0

>  <i_epik_Tot_Q> (1)
0

>  <i_epik_Tot_abs_Q> (1)
0

>  <s_lp_Force_Field> (1)
S-OPLS

>  <r_lp_Energy> (1)
45.8474

>  <b_lp_Chiralities_Consistent> (1)
1

$$$$
