155761_Tricosanal
                    3D
 Schrodinger Suite 2021-3.
 70 69  0  0  1  0            999 V2000
   -7.4302    8.9090    2.3006 C   0  0  0  0  0  0
   -7.5013    8.1250    0.9870 C   0  0  0  0  0  0
   -6.8097    6.7586    1.0638 C   0  0  0  0  0  0
   -6.8853    5.9723   -0.2514 C   0  0  0  0  0  0
   -6.2784    4.5624   -0.1904 C   0  0  0  0  0  0
   -4.7623    4.5282    0.0444 C   0  0  0  0  0  0
   -4.1826    3.1098   -0.0023 C   0  0  0  0  0  0
   -2.6647    3.0574    0.2053 C   0  0  0  0  0  0
   -2.0954    1.6359    0.1356 C   0  0  0  0  0  0
   -0.5729    1.5727    0.3017 C   0  0  0  0  0  0
   -0.0145    0.1480    0.2124 C   0  0  0  0  0  0
    1.5119    0.0777    0.3322 C   0  0  0  0  0  0
    2.0630   -1.3491    0.2305 C   0  0  0  0  0  0
    3.5921   -1.4196    0.3036 C   0  0  0  0  0  0
    4.1428   -2.8466    0.2030 C   0  0  0  0  0  0
    5.6740   -2.9077    0.2318 C   0  0  0  0  0  0
    6.2259   -4.3375    0.1576 C   0  0  0  0  0  0
    7.7558   -4.4200    0.0438 C   0  0  0  0  0  0
    8.5130   -3.8612    1.2553 C   0  0  0  0  0  0
   10.0336   -4.0014    1.1271 C   0  0  0  0  0  0
   10.7934   -3.4111    2.3201 C   0  0  0  0  0  0
   12.3220   -3.5448    2.1780 C   0  0  0  0  0  0
   13.0413   -2.8622    3.3169 C   0  0  0  0  0  0
   13.7698   -3.4172    4.1093 O   0  0  0  0  0  0
   -7.9308    9.8794    2.2188 H   0  0  0  0  0  0
   -6.3904    9.0938    2.5942 H   0  0  0  0  0  0
   -7.9086    8.3547    3.1165 H   0  0  0  0  0  0
   -8.5521    7.9824    0.6996 H   0  0  0  0  0  0
   -7.0449    8.7152    0.1804 H   0  0  0  0  0  0
   -5.7612    6.9055    1.3548 H   0  0  0  0  0  0
   -7.2674    6.1641    1.8682 H   0  0  0  0  0  0
   -7.9387    5.8920   -0.5526 H   0  0  0  0  0  0
   -6.3869    6.5472   -1.0454 H   0  0  0  0  0  0
   -6.7801    3.9848    0.5994 H   0  0  0  0  0  0
   -6.4991    4.0411   -1.1319 H   0  0  0  0  0  0
   -4.2652    5.1497   -0.7148 H   0  0  0  0  0  0
   -4.5208    4.9830    1.0140 H   0  0  0  0  0  0
   -4.6759    2.4902    0.7603 H   0  0  0  0  0  0
   -4.4301    2.6496   -0.9699 H   0  0  0  0  0  0
   -2.1730    3.6831   -0.5535 H   0  0  0  0  0  0
   -2.4117    3.5059    1.1767 H   0  0  0  0  0  0
   -2.5724    1.0146    0.9072 H   0  0  0  0  0  0
   -2.3715    1.1836   -0.8279 H   0  0  0  0  0  0
   -0.0981    2.1976   -0.4684 H   0  0  0  0  0  0
   -0.2905    2.0166    1.2670 H   0  0  0  0  0  0
   -0.4711   -0.4720    0.9972 H   0  0  0  0  0  0
   -0.3219   -0.3012   -0.7430 H   0  0  0  0  0  0
    1.9657    0.6989   -0.4534 H   0  0  0  0  0  0
    1.8253    0.5229    1.2874 H   0  0  0  0  0  0
    1.6301   -1.9649    1.0319 H   0  0  0  0  0  0
    1.7252   -1.8014   -0.7131 H   0  0  0  0  0  0
    4.0214   -0.8074   -0.5026 H   0  0  0  0  0  0
    3.9343   -0.9631    1.2435 H   0  0  0  0  0  0
    3.7376   -3.4524    1.0263 H   0  0  0  0  0  0
    3.7778   -3.3134   -0.7231 H   0  0  0  0  0  0
    6.0759   -2.3210   -0.6074 H   0  0  0  0  0  0
    6.0324   -2.4145    1.1448 H   0  0  0  0  0  0
    5.8946   -4.9003    1.0420 H   0  0  0  0  0  0
    5.7799   -4.8447   -0.7085 H   0  0  0  0  0  0
    8.0479   -5.4684   -0.1038 H   0  0  0  0  0  0
    8.0797   -3.8846   -0.8604 H   0  0  0  0  0  0
    8.2653   -2.8010    1.3942 H   0  0  0  0  0  0
    8.1727   -4.3754    2.1657 H   0  0  0  0  0  0
   10.2982   -5.0619    1.0149 H   0  0  0  0  0  0
   10.3684   -3.5052    0.2050 H   0  0  0  0  0  0
   10.5276   -2.3505    2.4320 H   0  0  0  0  0  0
   10.4727   -3.9078    3.2449 H   0  0  0  0  0  0
   12.6307   -4.5941    2.1476 H   0  0  0  0  0  0
   12.6364   -3.0635    1.2401 H   0  0  0  0  0  0
   12.8359   -1.7679    3.4015 H   0  0  0  0  0  0
  1  2  1  0  0  0
  1 25  1  0  0  0
  1 26  1  0  0  0
  1 27  1  0  0  0
  2  3  1  0  0  0
  2 28  1  0  0  0
  2 29  1  0  0  0
  3  4  1  0  0  0
  3 30  1  0  0  0
  3 31  1  0  0  0
  4  5  1  0  0  0
  4 32  1  0  0  0
  4 33  1  0  0  0
  5  6  1  0  0  0
  5 34  1  0  0  0
  5 35  1  0  0  0
  6  7  1  0  0  0
  6 36  1  0  0  0
  6 37  1  0  0  0
  7  8  1  0  0  0
  7 38  1  0  0  0
  7 39  1  0  0  0
  8  9  1  0  0  0
  8 40  1  0  0  0
  8 41  1  0  0  0
  9 10  1  0  0  0
  9 42  1  0  0  0
  9 43  1  0  0  0
 10 11  1  0  0  0
 10 44  1  0  0  0
 10 45  1  0  0  0
 11 12  1  0  0  0
 11 46  1  0  0  0
 11 47  1  0  0  0
 12 13  1  0  0  0
 12 48  1  0  0  0
 12 49  1  0  0  0
 13 14  1  0  0  0
 13 50  1  0  0  0
 13 51  1  0  0  0
 14 15  1  0  0  0
 14 52  1  0  0  0
 14 53  1  0  0  0
 15 16  1  0  0  0
 15 54  1  0  0  0
 15 55  1  0  0  0
 16 17  1  0  0  0
 16 56  1  0  0  0
 16 57  1  0  0  0
 17 18  1  0  0  0
 17 58  1  0  0  0
 17 59  1  0  0  0
 18 19  1  0  0  0
 18 60  1  0  0  0
 18 61  1  0  0  0
 19 20  1  0  0  0
 19 62  1  0  0  0
 19 63  1  0  0  0
 20 21  1  0  0  0
 20 64  1  0  0  0
 20 65  1  0  0  0
 21 22  1  0  0  0
 21 66  1  0  0  0
 21 67  1  0  0  0
 22 23  1  0  0  0
 22 68  1  0  0  0
 22 69  1  0  0  0
 23 24  2  0  0  0
 23 70  1  0  0  0
M  END
>  <i_m_Spin_multiplicity> (1)
1

>  <s_j_Task> (1)
Single Point

>  <s_j_QM_Method> (1)
DFT(b3lyp-d3)

>  <s_j_QM_Basis> (1)
cc-pvtz(-f)

>  <i_j_Number_of_canonical_orbitals> (1)
959

>  <i_j_Geometry_convergence_category> (1)
3

>  <r_j_Gas_Phase_Energy> (1)
-979.807480766719

>  <r_j_Final_Energy> (1)
-979.807480766719

>  <r_j_HOMO> (1)
-0.2760453106018

>  <r_j_LUMO> (1)
-0.0670974513564128

>  <r_j_Polarizability> (1)
289.678490688831

>  <r_j_QM_Dipole_(debye)> (1)
3.21637228436818

>  <r_j_QM_Dipole_X_(debye)> (1)
-2.27230184705671

>  <r_j_QM_Dipole_Y_(debye)> (1)
0.683038075992706

>  <r_j_QM_Dipole_Z_(debye)> (1)
-2.17144052975407

>  <r_j_Lowest_Frequency_(cm-1)> (1)
17.1958200452327

>  <r_j_Highest_Frequency_(cm-1)> (1)
3051.65649911624

>  <r_j_2nd_Lowest_Frequency_(cm-1)> (1)
29.9939048558984

>  <i_j_Num_Negative_Frequencies> (1)
0

>  <r_j_Zero_Point_Energy_(kcal/mol)> (1)
410.411400002676

>  <r_j_Entropy_(cal/mol/K)_298.15K_1.00E+00atm> (1)
184.450785486794

>  <r_j_Enthalpy_(kcal/mol)_298.15K_1.00E+00atm> (1)
18.8169452118361

>  <r_j_Free_Energy_(kcal/mol)_298.15K_1.00E+00atm> (1)
-36.1770564810515

>  <r_j_Internal_Energy_(kcal/mol)_298.15K_1.00E+00atm> (1)
18.2244596230088

>  <r_j_Heat_Capacity_(cal/mol/K)_298.15K_1.00E+00atm> (1)
110.392431871694

>  <r_j_ln(Q)_298.15K_1.00E+00atm> (1)
61.059808311385

>  <r_j_Total_Internal_Energy_(au)_298.15K_1.00E+00atm> (1)
-979.124406040172

>  <r_j_Total_Enthalpy_(au)_298.15K_1.00E+00atm> (1)
-979.12346185428

>  <r_j_Total_Free_Energy_(au)_298.15K_1.00E+00atm> (1)
-979.211100375007

>  <r_lp_tautomer_probability> (1)
1

>  <r_epik_Ionization_Penalty> (1)
  0.0000

>  <r_epik_Ionization_Penalty_Charging> (1)
  0.0000

>  <r_epik_Ionization_Penalty_Neutral> (1)
  0.0000

>  <r_epik_State_Penalty> (1)
  0.0000

>  <r_epik_Charging_Adjusted_Penalty> (1)
0

>  <i_epik_Tot_Q> (1)
0

>  <i_epik_Tot_abs_Q> (1)
0

>  <s_lp_Force_Field> (1)
S-OPLS

>  <r_lp_Energy> (1)
11.975198

>  <b_lp_Chiralities_Consistent> (1)
1

$$$$
