15604_1-methylfluorene
                    3D
 Schrodinger Suite 2021-3.
 26 28  0  0  1  0            999 V2000
   -0.0354   -0.0089   -0.0001 C   0  0  0  0  0  0
    1.4756    0.0095    0.0000 C   0  0  0  0  0  0
    2.2096    1.1938    0.0000 C   0  0  0  0  0  0
    1.7134    2.6279    0.0000 C   0  0  0  0  0  0
    2.9986    3.4293    0.0000 C   0  0  0  0  0  0
    3.1825    4.8063    0.0001 C   0  0  0  0  0  0
    4.4857    5.3158    0.0001 C   0  0  0  0  0  0
    5.5878    4.4540   -0.0001 C   0  0  0  0  0  0
    5.4075    3.0703   -0.0001 C   0  0  0  0  0  0
    4.1076    2.5610    0.0000 C   0  0  0  0  0  0
    3.6205    1.1769    0.0000 C   0  0  0  0  0  0
    4.3213   -0.0281    0.0000 C   0  0  0  0  0  0
    3.5921   -1.2183    0.0001 C   0  0  0  0  0  0
    2.1963   -1.1971    0.0001 C   0  0  0  0  0  0
   -0.4584    0.9984   -0.0001 H   0  0  0  0  0  0
   -0.4214   -0.5336    0.8813 H   0  0  0  0  0  0
   -0.4213   -0.5336   -0.8815 H   0  0  0  0  0  0
    1.0943    2.8499   -0.8794 H   0  0  0  0  0  0
    1.0943    2.8498    0.8793 H   0  0  0  0  0  0
    2.3302    5.4807    0.0003 H   0  0  0  0  0  0
    4.6443    6.3904    0.0001 H   0  0  0  0  0  0
    6.5928    4.8666   -0.0002 H   0  0  0  0  0  0
    6.2641    2.4024   -0.0002 H   0  0  0  0  0  0
    5.4075   -0.0414    0.0000 H   0  0  0  0  0  0
    4.1135   -2.1715    0.0002 H   0  0  0  0  0  0
    1.6489   -2.1369    0.0001 H   0  0  0  0  0  0
  1  2  1  0  0  0
  1 15  1  0  0  0
  1 16  1  0  0  0
  1 17  1  0  0  0
  2 14  1  0  0  0
  2  3  2  0  0  0
  3 11  1  0  0  0
  3  4  1  0  0  0
  4  5  1  0  0  0
  4 18  1  0  0  0
  4 19  1  0  0  0
  5 10  1  0  0  0
  5  6  2  0  0  0
  6  7  1  0  0  0
  6 20  1  0  0  0
  7  8  2  0  0  0
  7 21  1  0  0  0
  8  9  1  0  0  0
  8 22  1  0  0  0
  9 10  2  0  0  0
  9 23  1  0  0  0
 10 11  1  0  0  0
 11 12  2  0  0  0
 12 13  1  0  0  0
 12 24  1  0  0  0
 13 14  2  0  0  0
 13 25  1  0  0  0
 14 26  1  0  0  0
M  END
>  <i_m_Spin_multiplicity> (1)
1

>  <s_j_Task> (1)
Single Point

>  <s_j_QM_Method> (1)
DFT(b3lyp-d3)

>  <s_j_QM_Basis> (1)
cc-pvtz(-f)

>  <i_j_Number_of_canonical_orbitals> (1)
419

>  <i_j_Geometry_convergence_category> (1)
0

>  <r_j_Gas_Phase_Energy> (1)
-540.921178637718

>  <r_j_Final_Energy> (1)
-540.921178637718

>  <r_j_HOMO> (1)
-0.207214844916513

>  <r_j_LUMO> (1)
-0.0283160846826626

>  <r_j_Polarizability> (1)
159.468324116699

>  <r_j_QM_Dipole_(debye)> (1)
0.887238887912613

>  <r_j_QM_Dipole_X_(debye)> (1)
-0.885887190484284

>  <r_j_QM_Dipole_Y_(debye)> (1)
0.0489563984793666

>  <r_j_QM_Dipole_Z_(debye)> (1)
3.17521848212331e-05

>  <r_j_Lowest_Frequency_(cm-1)> (1)
106.648365690041

>  <r_j_Highest_Frequency_(cm-1)> (1)
3145.35404866019

>  <r_j_2nd_Lowest_Frequency_(cm-1)> (1)
130.583221499999

>  <i_j_Num_Negative_Frequencies> (1)
0

>  <r_j_Zero_Point_Energy_(kcal/mol)> (1)
134.469291837075

>  <r_j_Entropy_(cal/mol/K)_298.15K_1.00E+00atm> (1)
98.8345900958873

>  <r_j_Enthalpy_(kcal/mol)_298.15K_1.00E+00atm> (1)
7.11296057782616

>  <r_j_Free_Energy_(kcal/mol)_298.15K_1.00E+00atm> (1)
-22.3545724592626

>  <r_j_Internal_Energy_(kcal/mol)_298.15K_1.00E+00atm> (1)
6.52047498899888

>  <r_j_Heat_Capacity_(cal/mol/K)_298.15K_1.00E+00atm> (1)
43.6077788664878

>  <r_j_ln(Q)_298.15K_1.00E+00atm> (1)
37.7301539156585

>  <r_j_Total_Internal_Energy_(au)_298.15K_1.00E+00atm> (1)
-540.696497141157

>  <r_j_Total_Enthalpy_(au)_298.15K_1.00E+00atm> (1)
-540.695552955264

>  <r_j_Total_Free_Energy_(au)_298.15K_1.00E+00atm> (1)
-540.74251245858

>  <r_lp_tautomer_probability> (1)
1

>  <r_epik_Ionization_Penalty> (1)
  0.0000

>  <r_epik_Ionization_Penalty_Charging> (1)
  0.0000

>  <r_epik_Ionization_Penalty_Neutral> (1)
  0.0000

>  <r_epik_State_Penalty> (1)
  0.0000

>  <r_epik_Charging_Adjusted_Penalty> (1)
0

>  <i_epik_Tot_Q> (1)
0

>  <i_epik_Tot_abs_Q> (1)
0

>  <s_lp_Force_Field> (1)
S-OPLS

>  <r_lp_Energy> (1)
8.32082

>  <b_lp_Chiralities_Consistent> (1)
1

$$$$
