15645217_1-ethyl-2-methylnaphthalene
                    3D
 Schrodinger Suite 2021-3.
 27 28  0  0  1  0            999 V2000
   -0.5830    1.4408   -0.0987 C   0  0  0  0  0  0
   -0.0322    0.0090    0.0355 C   0  0  0  0  0  0
    1.4841   -0.0289    0.0237 C   0  0  0  0  0  0
    2.1978   -0.0322    1.2171 C   0  0  0  0  0  0
    3.6175   -0.0456    1.1900 C   0  0  0  0  0  0
    4.3153   -0.0461    0.0092 C   0  0  0  0  0  0
    3.6262   -0.0229   -1.2285 C   0  0  0  0  0  0
    4.3268   -0.0053   -2.4639 C   0  0  0  0  0  0
    3.6522    0.0314   -3.6609 C   0  0  0  0  0  0
    2.2383    0.0513   -3.6675 C   0  0  0  0  0  0
    1.5312    0.0302   -2.4866 C   0  0  0  0  0  0
    2.1915   -0.0107   -1.2246 C   0  0  0  0  0  0
    1.5048   -0.0217    2.5635 C   0  0  0  0  0  0
   -1.6780    1.4468   -0.0919 H   0  0  0  0  0  0
   -0.2425    1.9041   -1.0297 H   0  0  0  0  0  0
   -0.2334    2.0700    0.7263 H   0  0  0  0  0  0
   -0.4106   -0.4363    0.9595 H   0  0  0  0  0  0
   -0.4312   -0.6136   -0.7721 H   0  0  0  0  0  0
    4.1565   -0.0552    2.1338 H   0  0  0  0  0  0
    5.4022   -0.0567    0.0082 H   0  0  0  0  0  0
    5.4138   -0.0191   -2.4432 H   0  0  0  0  0  0
    4.1987    0.0471   -4.5993 H   0  0  0  0  0  0
    1.7059    0.0847   -4.6138 H   0  0  0  0  0  0
    0.4481    0.0516   -2.5251 H   0  0  0  0  0  0
    2.2305    0.0838    3.3742 H   0  0  0  0  0  0
    0.9474   -0.9492    2.7418 H   0  0  0  0  0  0
    0.7905    0.8039    2.6512 H   0  0  0  0  0  0
  1  2  1  0  0  0
  1 14  1  0  0  0
  1 15  1  0  0  0
  1 16  1  0  0  0
  2  3  1  0  0  0
  2 17  1  0  0  0
  2 18  1  0  0  0
  3 12  1  0  0  0
  3  4  2  0  0  0
  4  5  1  0  0  0
  4 13  1  0  0  0
  5  6  2  0  0  0
  5 19  1  0  0  0
  6  7  1  0  0  0
  6 20  1  0  0  0
  7 12  1  0  0  0
  7  8  2  0  0  0
  8  9  1  0  0  0
  8 21  1  0  0  0
  9 10  2  0  0  0
  9 22  1  0  0  0
 10 11  1  0  0  0
 10 23  1  0  0  0
 11 12  2  0  0  0
 11 24  1  0  0  0
 13 25  1  0  0  0
 13 26  1  0  0  0
 13 27  1  0  0  0
M  END
>  <i_m_Spin_multiplicity> (1)
1

>  <s_j_Task> (1)
Single Point

>  <s_j_QM_Method> (1)
DFT(b3lyp-d3)

>  <s_j_QM_Basis> (1)
cc-pvtz(-f)

>  <i_j_Number_of_canonical_orbitals> (1)
414

>  <i_j_Geometry_convergence_category> (1)
0

>  <r_j_Gas_Phase_Energy> (1)
-504.01322689497

>  <r_j_Final_Energy> (1)
-504.01322689497

>  <r_j_HOMO> (1)
-0.207856308442157

>  <r_j_LUMO> (1)
-0.0389990625102936

>  <r_j_Polarizability> (1)
151.455739337277

>  <r_j_QM_Dipole_(debye)> (1)
0.679041661682167

>  <r_j_QM_Dipole_X_(debye)> (1)
-0.477377415381292

>  <r_j_QM_Dipole_Y_(debye)> (1)
0.0520654344515291

>  <r_j_QM_Dipole_Z_(debye)> (1)
0.480101626865947

>  <r_j_Lowest_Frequency_(cm-1)> (1)
107.504415741442

>  <r_j_Highest_Frequency_(cm-1)> (1)
3158.73753122162

>  <r_j_2nd_Lowest_Frequency_(cm-1)> (1)
116.331223498517

>  <i_j_Num_Negative_Frequencies> (1)
0

>  <r_j_Zero_Point_Energy_(kcal/mol)> (1)
144.90638421765

>  <r_j_Entropy_(cal/mol/K)_298.15K_1.00E+00atm> (1)
100.031312533317

>  <r_j_Enthalpy_(kcal/mol)_298.15K_1.00E+00atm> (1)
7.37574424768367

>  <r_j_Free_Energy_(kcal/mol)_298.15K_1.00E+00atm> (1)
-22.4485915841249

>  <r_j_Internal_Energy_(kcal/mol)_298.15K_1.00E+00atm> (1)
6.7832586588564

>  <r_j_Heat_Capacity_(cal/mol/K)_298.15K_1.00E+00atm> (1)
44.6892064611582

>  <r_j_ln(Q)_298.15K_1.00E+00atm> (1)
37.8888398425996

>  <r_j_Total_Internal_Energy_(au)_298.15K_1.00E+00atm> (1)
-503.771494060442

>  <r_j_Total_Enthalpy_(au)_298.15K_1.00E+00atm> (1)
-503.770549874549

>  <r_j_Total_Free_Energy_(au)_298.15K_1.00E+00atm> (1)
-503.818077979315

>  <r_lp_tautomer_probability> (1)
1

>  <r_epik_Ionization_Penalty> (1)
  0.0000

>  <r_epik_Ionization_Penalty_Charging> (1)
  0.0000

>  <r_epik_Ionization_Penalty_Neutral> (1)
  0.0000

>  <r_epik_State_Penalty> (1)
  0.0000

>  <r_epik_Charging_Adjusted_Penalty> (1)
0

>  <i_epik_Tot_Q> (1)
0

>  <i_epik_Tot_abs_Q> (1)
0

>  <s_lp_Force_Field> (1)
S-OPLS

>  <r_lp_Energy> (1)
21.0174

>  <b_lp_Chiralities_Consistent> (1)
1

$$$$
