15713_Decylcyclohexane
                    3D
 Schrodinger Suite 2021-3.
 48 48  0  0  1  0            999 V2000
   -4.5107    2.7275    0.3492 C   0  0  0  0  0  0
   -2.9872    2.7997    0.2102 C   0  0  0  0  0  0
   -2.3133    1.4229    0.2458 C   0  0  0  0  0  0
   -0.7885    1.4911    0.1041 C   0  0  0  0  0  0
   -0.1139    0.1130    0.1204 C   0  0  0  0  0  0
    1.4211    0.1579    0.0595 C   0  0  0  0  0  0
    1.9857    0.7478   -1.2394 C   0  0  0  0  0  0
    3.5167    0.7147   -1.3071 C   0  0  0  0  0  0
    4.0757    1.3356   -2.5928 C   0  0  0  0  0  0
    5.6075    1.3037   -2.6631 C   0  0  0  0  0  0
    6.2179    2.0334   -3.8715 C   0  0  0  0  0  0
    7.7525    2.1078   -3.7530 C   0  0  0  0  0  0
    8.3955    2.8384   -4.9409 C   0  0  0  0  0  0
    7.9923    2.1930   -6.2745 C   0  0  0  0  0  0
    6.4648    2.1219   -6.4118 C   0  0  0  0  0  0
    5.8245    1.3956   -5.2184 C   0  0  0  0  0  0
   -4.9658    3.7231    0.3195 H   0  0  0  0  0  0
   -4.7982    2.2572    1.2966 H   0  0  0  0  0  0
   -4.9524    2.1345   -0.4599 H   0  0  0  0  0  0
   -2.7272    3.3039   -0.7307 H   0  0  0  0  0  0
   -2.5731    3.4250    1.0130 H   0  0  0  0  0  0
   -2.5716    0.9154    1.1864 H   0  0  0  0  0  0
   -2.7260    0.7965   -0.5583 H   0  0  0  0  0  0
   -0.5430    2.0161   -0.8281 H   0  0  0  0  0  0
   -0.3743    2.1057    0.9167 H   0  0  0  0  0  0
   -0.4190   -0.4195    1.0314 H   0  0  0  0  0  0
   -0.4928   -0.4847   -0.7212 H   0  0  0  0  0  0
    1.8009    0.7366    0.9139 H   0  0  0  0  0  0
    1.8129   -0.8606    0.1856 H   0  0  0  0  0  0
    1.5708    0.1978   -2.0967 H   0  0  0  0  0  0
    1.6495    1.7864   -1.3547 H   0  0  0  0  0  0
    3.9306    1.2447   -0.4372 H   0  0  0  0  0  0
    3.8650   -0.3246   -1.2215 H   0  0  0  0  0  0
    3.6474    0.8101   -3.4559 H   0  0  0  0  0  0
    3.7319    2.3774   -2.6701 H   0  0  0  0  0  0
    6.0107    1.7527   -1.7441 H   0  0  0  0  0  0
    5.9514    0.2587   -2.6637 H   0  0  0  0  0  0
    5.8350    3.0674   -3.8692 H   0  0  0  0  0  0
    8.0289    2.5982   -2.8109 H   0  0  0  0  0  0
    8.1519    1.0837   -3.6993 H   0  0  0  0  0  0
    8.0706    3.8888   -4.9364 H   0  0  0  0  0  0
    9.4869    2.8487   -4.8344 H   0  0  0  0  0  0
    8.4271    2.7463   -7.1156 H   0  0  0  0  0  0
    8.4056    1.1751   -6.3210 H   0  0  0  0  0  0
    6.0610    3.1430   -6.4687 H   0  0  0  0  0  0
    6.1876    1.6247   -7.3492 H   0  0  0  0  0  0
    6.1484    0.3436   -5.2161 H   0  0  0  0  0  0
    4.7350    1.3859   -5.3338 H   0  0  0  0  0  0
  1  2  1  0  0  0
  1 17  1  0  0  0
  1 18  1  0  0  0
  1 19  1  0  0  0
  2  3  1  0  0  0
  2 20  1  0  0  0
  2 21  1  0  0  0
  3  4  1  0  0  0
  3 22  1  0  0  0
  3 23  1  0  0  0
  4  5  1  0  0  0
  4 24  1  0  0  0
  4 25  1  0  0  0
  5  6  1  0  0  0
  5 26  1  0  0  0
  5 27  1  0  0  0
  6  7  1  0  0  0
  6 28  1  0  0  0
  6 29  1  0  0  0
  7  8  1  0  0  0
  7 30  1  0  0  0
  7 31  1  0  0  0
  8  9  1  0  0  0
  8 32  1  0  0  0
  8 33  1  0  0  0
  9 10  1  0  0  0
  9 34  1  0  0  0
  9 35  1  0  0  0
 10 11  1  0  0  0
 10 36  1  0  0  0
 10 37  1  0  0  0
 11 16  1  0  0  0
 11 12  1  0  0  0
 11 38  1  0  0  0
 12 13  1  0  0  0
 12 39  1  0  0  0
 12 40  1  0  0  0
 13 14  1  0  0  0
 13 41  1  0  0  0
 13 42  1  0  0  0
 14 15  1  0  0  0
 14 43  1  0  0  0
 14 44  1  0  0  0
 15 16  1  0  0  0
 15 45  1  0  0  0
 15 46  1  0  0  0
 16 47  1  0  0  0
 16 48  1  0  0  0
M  END
>  <i_m_Spin_multiplicity> (1)
1

>  <s_j_Task> (1)
Single Point

>  <s_j_QM_Method> (1)
DFT(b3lyp-d3)

>  <s_j_QM_Basis> (1)
cc-pvtz(-f)

>  <i_j_Number_of_canonical_orbitals> (1)
650

>  <i_j_Geometry_convergence_category> (1)
3

>  <r_j_Gas_Phase_Energy> (1)
-629.267301687986

>  <r_j_Final_Energy> (1)
-629.267301687986

>  <r_j_HOMO> (1)
-0.254004248596793

>  <r_j_LUMO> (1)
0.042609424695779

>  <r_j_Polarizability> (1)
193.53817862311

>  <r_j_QM_Dipole_(debye)> (1)
0.0783106793095874

>  <r_j_QM_Dipole_X_(debye)> (1)
0.0300024046665666

>  <r_j_QM_Dipole_Y_(debye)> (1)
0.061548890999132

>  <r_j_QM_Dipole_Z_(debye)> (1)
-0.0380020029068152

>  <r_j_Lowest_Frequency_(cm-1)> (1)
38.3939470144536

>  <r_j_Highest_Frequency_(cm-1)> (1)
3045.50144382665

>  <r_j_2nd_Lowest_Frequency_(cm-1)> (1)
65.8127657744337

>  <i_j_Num_Negative_Frequencies> (1)
0

>  <r_j_Zero_Point_Energy_(kcal/mol)> (1)
284.828560818301

>  <r_j_Entropy_(cal/mol/K)_298.15K_1.00E+00atm> (1)
133.378455531661

>  <r_j_Enthalpy_(kcal/mol)_298.15K_1.00E+00atm> (1)
11.8042948539696

>  <r_j_Free_Energy_(kcal/mol)_298.15K_1.00E+00atm> (1)
-27.9624916627951

>  <r_j_Internal_Energy_(kcal/mol)_298.15K_1.00E+00atm> (1)
11.2118092651423

>  <r_j_Heat_Capacity_(cal/mol/K)_298.15K_1.00E+00atm> (1)
70.6587324699865

>  <r_j_ln(Q)_298.15K_1.00E+00atm> (1)
47.1952266689594

>  <r_j_Total_Internal_Energy_(au)_298.15K_1.00E+00atm> (1)
-628.795531325567

>  <r_j_Total_Enthalpy_(au)_298.15K_1.00E+00atm> (1)
-628.794587139675

>  <r_j_Total_Free_Energy_(au)_298.15K_1.00E+00atm> (1)
-628.857959548248

>  <r_lp_tautomer_probability> (1)
1

>  <r_epik_Ionization_Penalty> (1)
  0.0000

>  <r_epik_Ionization_Penalty_Charging> (1)
  0.0000

>  <r_epik_Ionization_Penalty_Neutral> (1)
  0.0000

>  <r_epik_State_Penalty> (1)
  0.0000

>  <r_epik_Charging_Adjusted_Penalty> (1)
0

>  <i_epik_Tot_Q> (1)
0

>  <i_epik_Tot_abs_Q> (1)
0

>  <s_lp_Force_Field> (1)
S-OPLS

>  <r_lp_Energy> (1)
12.85

>  <b_lp_Chiralities_Consistent> (1)
1

$$$$
