15782_Propiovanillone
                    3D
 Schrodinger Suite 2021-3.
 25 25  0  0  1  0            999 V2000
   -2.3039   -1.0688   -0.0001 C   0  0  0  0  0  0
   -0.7914   -1.2783    0.0000 C   0  0  0  0  0  0
   -0.0143    0.0368    0.0001 C   0  0  0  0  0  0
   -0.6090    1.1068    0.0002 O   0  0  0  0  0  0
    1.4791   -0.0090    0.0000 C   0  0  0  0  0  0
    2.2029   -1.2182    0.0000 C   0  0  0  0  0  0
    3.5941   -1.2219    0.0000 C   0  0  0  0  0  0
    4.2884    0.0112    0.0000 C   0  0  0  0  0  0
    3.5700    1.2065    0.0000 C   0  0  0  0  0  0
    2.1786    1.2005    0.0000 C   0  0  0  0  0  0
    5.6467   -0.0450    0.0000 O   0  0  0  0  0  0
    4.3804   -2.3345   -0.0001 O   0  0  0  0  0  0
    3.7402   -3.5999    0.0000 C   0  0  0  0  0  0
   -2.8279   -2.0291   -0.0001 H   0  0  0  0  0  0
   -2.6154   -0.4989   -0.8791 H   0  0  0  0  0  0
   -2.6155   -0.4989    0.8789 H   0  0  0  0  0  0
   -0.4783   -1.8643    0.8750 H   0  0  0  0  0  0
   -0.4782   -1.8643   -0.8748 H   0  0  0  0  0  0
    1.6738   -2.1616    0.0000 H   0  0  0  0  0  0
    4.1150    2.1484    0.0000 H   0  0  0  0  0  0
    1.6146    2.1263    0.0000 H   0  0  0  0  0  0
    5.9961    0.8561    0.0000 H   0  0  0  0  0  0
    4.5407   -4.3411    0.0000 H   0  0  0  0  0  0
    3.1178   -3.7407   -0.8942 H   0  0  0  0  0  0
    3.1178   -3.7407    0.8942 H   0  0  0  0  0  0
  1  2  1  0  0  0
  1 14  1  0  0  0
  1 15  1  0  0  0
  1 16  1  0  0  0
  2  3  1  0  0  0
  2 17  1  0  0  0
  2 18  1  0  0  0
  3  4  2  0  0  0
  3  5  1  0  0  0
  5 10  1  0  0  0
  5  6  2  0  0  0
  6  7  1  0  0  0
  6 19  1  0  0  0
  7  8  2  0  0  0
  7 12  1  0  0  0
  8  9  1  0  0  0
  8 11  1  0  0  0
  9 10  2  0  0  0
  9 20  1  0  0  0
 10 21  1  0  0  0
 11 22  1  0  0  0
 12 13  1  0  0  0
 13 23  1  0  0  0
 13 24  1  0  0  0
 13 25  1  0  0  0
M  END
>  <i_m_Spin_multiplicity> (1)
1

>  <s_j_Task> (1)
Single Point

>  <s_j_QM_Method> (1)
DFT(b3lyp-d3)

>  <s_j_QM_Basis> (1)
cc-pvtz(-f)

>  <i_j_Number_of_canonical_orbitals> (1)
400

>  <i_j_Geometry_convergence_category> (1)
0

>  <r_j_Gas_Phase_Energy> (1)
-614.177254183139

>  <r_j_Final_Energy> (1)
-614.177254183139

>  <r_j_HOMO> (1)
-0.226247770447635

>  <r_j_LUMO> (1)
-0.056442143156937

>  <r_j_Polarizability> (1)
131.038658024775

>  <r_j_QM_Dipole_(debye)> (1)
2.81410921382076

>  <r_j_QM_Dipole_X_(debye)> (1)
1.92956109235501

>  <r_j_QM_Dipole_Y_(debye)> (1)
-2.04841515227402

>  <r_j_QM_Dipole_Z_(debye)> (1)
-0.000148710687294086

>  <r_j_Lowest_Frequency_(cm-1)> (1)
61.9972029572392

>  <r_j_Highest_Frequency_(cm-1)> (1)
3767.05452828393

>  <r_j_2nd_Lowest_Frequency_(cm-1)> (1)
109.496289456908

>  <i_j_Num_Negative_Frequencies> (1)
0

>  <r_j_Zero_Point_Energy_(kcal/mol)> (1)
127.251397111396

>  <r_j_Entropy_(cal/mol/K)_298.15K_1.00E+00atm> (1)
107.475457155626

>  <r_j_Enthalpy_(kcal/mol)_298.15K_1.00E+00atm> (1)
8.29171134664945

>  <r_j_Free_Energy_(kcal/mol)_298.15K_1.00E+00atm> (1)
-23.7520962043006

>  <r_j_Internal_Energy_(kcal/mol)_298.15K_1.00E+00atm> (1)
7.69922575782218

>  <r_j_Heat_Capacity_(cal/mol/K)_298.15K_1.00E+00atm> (1)
47.3996691312697

>  <r_j_ln(Q)_298.15K_1.00E+00atm> (1)
40.0889011516952

>  <r_j_Total_Internal_Energy_(au)_298.15K_1.00E+00atm> (1)
-613.962196675131

>  <r_j_Total_Enthalpy_(au)_298.15K_1.00E+00atm> (1)
-613.961252489239

>  <r_j_Total_Free_Energy_(au)_298.15K_1.00E+00atm> (1)
-614.01231754735

>  <r_lp_tautomer_probability> (1)
0.9999

>  <r_epik_Ionization_Penalty> (1)
  0.0083

>  <r_epik_Ionization_Penalty_Charging> (1)
  0.0000

>  <r_epik_Ionization_Penalty_Neutral> (1)
  0.0083

>  <r_epik_State_Penalty> (1)
  0.0062

>  <r_epik_Charging_Adjusted_Penalty> (1)
0.00624971

>  <i_epik_Tot_Q> (1)
0

>  <i_epik_Tot_abs_Q> (1)
0

>  <s_lp_Force_Field> (1)
S-OPLS

>  <r_lp_Energy> (1)
13.8798

>  <b_lp_Chiralities_Consistent> (1)
1

$$$$
