158032_4-nitrophenanthrene
                    3D
 Schrodinger Suite 2021-3.
 26 28  0  0  1  0            999 V2000
    1.0743    5.0817    0.1602 C   0  0  0  0  0  0
    1.8895    3.9539    0.3597 C   0  0  0  0  0  0
    1.3521    2.6812    0.3319 C   0  0  0  0  0  0
   -0.0278    2.4670    0.0933 C   0  0  0  0  0  0
   -0.8607    3.6206   -0.0311 C   0  0  0  0  0  0
   -0.2826    4.9111   -0.0174 C   0  0  0  0  0  0
   -2.2851    3.4763   -0.1020 C   0  0  0  0  0  0
   -2.8694    2.2555   -0.0046 C   0  0  0  0  0  0
   -2.0794    1.0613    0.0788 C   0  0  0  0  0  0
   -0.6528    1.1499    0.0431 C   0  0  0  0  0  0
    0.0279   -0.0954    0.0013 C   0  0  0  0  0  0
   -0.6034   -1.3178    0.1310 C   0  0  0  0  0  0
   -2.0008   -1.3700    0.2307 C   0  0  0  0  0  0
   -2.7216   -0.1955    0.1742 C   0  0  0  0  0  0
    1.4641   -0.1940   -0.3186 N   0  3  1  0  0  0
    2.1798   -0.8251    0.4600 O   0  0  0  0  0  0
    1.8384    0.3231   -1.3677 O   0  5  0  0  0  0
    1.5059    6.0778    0.1749 H   0  0  0  0  0  0
    2.9512    4.0787    0.5491 H   0  0  0  0  0  0
    2.0133    1.8528    0.5382 H   0  0  0  0  0  0
   -0.9352    5.7725   -0.1280 H   0  0  0  0  0  0
   -2.8914    4.3736   -0.1895 H   0  0  0  0  0  0
   -3.9510    2.1563   -0.0026 H   0  0  0  0  0  0
   -0.0041   -2.2208    0.1133 H   0  0  0  0  0  0
   -2.5026   -2.3277    0.3173 H   0  0  0  0  0  0
   -3.8073   -0.2183    0.2042 H   0  0  0  0  0  0
  1  6  1  0  0  0
  1  2  2  0  0  0
  1 18  1  0  0  0
  2  3  1  0  0  0
  2 19  1  0  0  0
  3  4  2  0  0  0
  3 20  1  0  0  0
  4 10  1  0  0  0
  4  5  1  0  0  0
  5  6  2  0  0  0
  5  7  1  0  0  0
  6 21  1  0  0  0
  7  8  2  0  0  0
  7 22  1  0  0  0
  8  9  1  0  0  0
  8 23  1  0  0  0
  9 14  1  0  0  0
  9 10  2  0  0  0
 10 11  1  0  0  0
 11 12  2  0  0  0
 11 15  1  0  0  0
 12 13  1  0  0  0
 12 24  1  0  0  0
 13 14  2  0  0  0
 13 25  1  0  0  0
 14 26  1  0  0  0
 15 16  2  0  0  0
 15 17  1  0  0  0
M  END
>  <i_m_Spin_multiplicity> (1)
1

>  <s_j_Task> (1)
Single Point

>  <s_j_QM_Method> (1)
DFT(b3lyp-d3)

>  <s_j_QM_Basis> (1)
cc-pvtz(-f)

>  <i_j_Number_of_canonical_orbitals> (1)
458

>  <i_j_Geometry_convergence_category> (1)
3

>  <r_j_Gas_Phase_Energy> (1)
-744.275850231638

>  <r_j_Final_Energy> (1)
-744.275850231638

>  <r_j_HOMO> (1)
-0.223549493033235

>  <r_j_LUMO> (1)
-0.0874643582822655

>  <r_j_Polarizability> (1)
178.187289829064

>  <r_j_QM_Dipole_(debye)> (1)
3.93147739473061

>  <r_j_QM_Dipole_X_(debye)> (1)
-3.66973724848458

>  <r_j_QM_Dipole_Y_(debye)> (1)
1.18842415601861

>  <r_j_QM_Dipole_Z_(debye)> (1)
0.759730911411416

>  <r_j_Lowest_Frequency_(cm-1)> (1)
77.614944759715

>  <r_j_Highest_Frequency_(cm-1)> (1)
3206.29163349621

>  <r_j_2nd_Lowest_Frequency_(cm-1)> (1)
107.888947277625

>  <i_j_Num_Negative_Frequencies> (1)
0

>  <r_j_Zero_Point_Energy_(kcal/mol)> (1)
122.881644141315

>  <r_j_Entropy_(cal/mol/K)_298.15K_1.00E+00atm> (1)
105.840457378571

>  <r_j_Enthalpy_(kcal/mol)_298.15K_1.00E+00atm> (1)
7.93663985556765

>  <r_j_Free_Energy_(kcal/mol)_298.15K_1.00E+00atm> (1)
-23.6196925118532

>  <r_j_Internal_Energy_(kcal/mol)_298.15K_1.00E+00atm> (1)
7.34415426674038

>  <r_j_Heat_Capacity_(cal/mol/K)_298.15K_1.00E+00atm> (1)
48.6754268980055

>  <r_j_ln(Q)_298.15K_1.00E+00atm> (1)
39.8654295686826

>  <r_j_Total_Internal_Energy_(au)_298.15K_1.00E+00atm> (1)
-744.068322210733

>  <r_j_Total_Enthalpy_(au)_298.15K_1.00E+00atm> (1)
-744.067378024841

>  <r_j_Total_Free_Energy_(au)_298.15K_1.00E+00atm> (1)
-744.117666241794

>  <r_lp_tautomer_probability> (1)
1

>  <r_epik_Ionization_Penalty> (1)
  0.0000

>  <r_epik_Ionization_Penalty_Charging> (1)
  0.0000

>  <r_epik_Ionization_Penalty_Neutral> (1)
  0.0000

>  <r_epik_State_Penalty> (1)
  0.0000

>  <r_epik_Charging_Adjusted_Penalty> (1)
0

>  <i_epik_Tot_Q> (1)
0

>  <i_epik_Tot_abs_Q> (1)
2

>  <s_lp_Force_Field> (1)
S-OPLS

>  <r_lp_Energy> (1)
69.865995

>  <b_lp_Chiralities_Consistent> (1)
1

$$$$
