16040_Palustric acid
                    3D
 Schrodinger Suite 2021-3.
 51 53  0  0  1  0            999 V2000
   -0.6815   -1.3179    0.7614 C   0  0  0  0  0  0
   -0.0152   -0.0731    0.1612 C   0  0  0  0  0  0
   -0.5536    0.1760   -1.2649 C   0  0  0  0  0  0
    1.4993   -0.1116    0.1644 C   0  0  0  0  0  0
    2.2460   -1.2219    0.3076 C   0  0  0  0  0  0
    3.7145   -1.2087    0.3356 C   0  0  0  0  0  0
    4.4028   -0.1199   -0.0780 C   0  0  0  0  0  0
    3.5794    1.0127   -0.6826 C   0  0  0  0  0  0
    2.2435    1.2026    0.0401 C   0  0  0  0  0  0
    5.9311   -0.0051   -0.0776 C   0  0  0  0  0  0
    6.3874    0.0941   -1.5650 C   0  0  0  0  0  0
    7.9095    0.0633   -1.7379 C   0  0  0  0  0  0
    8.5142   -1.1850   -1.0905 C   0  0  0  0  0  0
    8.1507   -1.3200    0.3983 C   0  0  0  0  0  0
    6.6047   -1.2429    0.6244 C   0  0  0  0  0  0
    5.8454   -2.5331    0.2690 C   0  0  0  0  0  0
    4.4104   -2.4696    0.7873 C   0  0  0  0  0  0
    8.7258   -2.6472    0.9333 C   0  0  0  0  0  0
    8.8705   -0.2091    1.3000 C   0  0  0  0  0  0
    8.5387   -0.2365    2.5102 O   0  0  0  0  0  0
    9.6938    0.5465    0.7201 O   0  5  0  0  0  0
    6.3247    1.2923    0.6788 C   0  0  0  0  0  0
   -0.3102   -1.5205    1.7704 H   0  0  0  0  0  0
   -0.4845   -2.2045    0.1482 H   0  0  0  0  0  0
   -1.7687   -1.1888    0.8105 H   0  0  0  0  0  0
   -0.3132    0.7937    0.7746 H   0  0  0  0  0  0
   -0.1158    1.0738   -1.7117 H   0  0  0  0  0  0
   -1.6441    0.2967   -1.2617 H   0  0  0  0  0  0
   -0.3041   -0.6725   -1.9119 H   0  0  0  0  0  0
    1.7683   -2.1900    0.4451 H   0  0  0  0  0  0
    4.1321    1.9540   -0.6923 H   0  0  0  0  0  0
    3.3765    0.7642   -1.7374 H   0  0  0  0  0  0
    1.6358    1.9561   -0.4769 H   0  0  0  0  0  0
    2.4269    1.5978    1.0538 H   0  0  0  0  0  0
    5.9450   -0.7452   -2.1216 H   0  0  0  0  0  0
    5.9733    1.0086   -2.0119 H   0  0  0  0  0  0
    8.1516    0.0964   -2.8105 H   0  0  0  0  0  0
    8.3767    0.9332   -1.2697 H   0  0  0  0  0  0
    8.1724   -2.0801   -1.6389 H   0  0  0  0  0  0
    9.6049   -1.1406   -1.1695 H   0  0  0  0  0  0
    6.4977   -1.0985    1.7071 H   0  0  0  0  0  0
    5.8321   -2.6914   -0.8178 H   0  0  0  0  0  0
    6.3436   -3.4019    0.7065 H   0  0  0  0  0  0
    4.4135   -2.5267    1.8868 H   0  0  0  0  0  0
    3.8338   -3.3431    0.4459 H   0  0  0  0  0  0
    8.4159   -3.5231    0.3472 H   0  0  0  0  0  0
    8.4346   -2.7860    1.9783 H   0  0  0  0  0  0
    9.8211   -2.6041    0.8987 H   0  0  0  0  0  0
    7.4036    1.4415    0.6772 H   0  0  0  0  0  0
    6.0053    1.2364    1.7228 H   0  0  0  0  0  0
    5.8682    2.1763    0.2197 H   0  0  0  0  0  0
  1  2  1  0  0  0
  1 23  1  0  0  0
  1 24  1  0  0  0
  1 25  1  0  0  0
  2  3  1  0  0  0
  2  4  1  0  0  0
  2 26  1  0  0  0
  3 27  1  0  0  0
  3 28  1  0  0  0
  3 29  1  0  0  0
  4  9  1  0  0  0
  4  5  2  0  0  0
  5  6  1  0  0  0
  5 30  1  0  0  0
  6 17  1  0  0  0
  6  7  2  0  0  0
  7  8  1  0  0  0
  7 10  1  0  0  0
  8  9  1  0  0  0
  8 31  1  0  0  0
  8 32  1  0  0  0
  9 33  1  0  0  0
  9 34  1  0  0  0
 10 15  1  0  0  0
 10 11  1  0  0  0
 10 22  1  0  0  0
 11 12  1  0  0  0
 11 35  1  0  0  0
 11 36  1  0  0  0
 12 13  1  0  0  0
 12 37  1  0  0  0
 12 38  1  0  0  0
 13 14  1  0  0  0
 13 39  1  0  0  0
 13 40  1  0  0  0
 14 15  1  0  0  0
 14 18  1  0  0  0
 14 19  1  0  0  0
 15 16  1  0  0  0
 15 41  1  0  0  0
 16 17  1  0  0  0
 16 42  1  0  0  0
 16 43  1  0  0  0
 17 44  1  0  0  0
 17 45  1  0  0  0
 18 46  1  0  0  0
 18 47  1  0  0  0
 18 48  1  0  0  0
 19 20  2  0  0  0
 19 21  1  0  0  0
 22 49  1  0  0  0
 22 50  1  0  0  0
 22 51  1  0  0  0
M  END
>  <i_m_Spin_multiplicity> (1)
1

>  <s_j_Task> (1)
Single Point

>  <s_j_QM_Method> (1)
DFT(b3lyp-d3)

>  <s_j_QM_Basis> (1)
cc-pvtz(-f)

>  <i_j_Number_of_canonical_orbitals> (1)
752

>  <i_j_Geometry_convergence_category> (1)
3

>  <r_j_Gas_Phase_Energy> (1)
-930.463487782307

>  <r_j_Final_Energy> (1)
-930.463487782307

>  <r_j_HOMO> (1)
-0.0604570051658713

>  <r_j_LUMO> (1)
0.0672901461919368

>  <r_j_Polarizability> (1)
240.984876104798

>  <r_j_QM_Dipole_(debye)> (1)
15.3675119034911

>  <r_j_QM_Dipole_X_(debye)> (1)
-14.4516345563701

>  <r_j_QM_Dipole_Y_(debye)> (1)
-1.90746529467268

>  <r_j_QM_Dipole_Z_(debye)> (1)
-4.86541436084194

>  <r_j_Lowest_Frequency_(cm-1)> (1)
48.8462778689549

>  <r_j_Highest_Frequency_(cm-1)> (1)
3105.60560894

>  <r_j_2nd_Lowest_Frequency_(cm-1)> (1)
75.1895685958721

>  <i_j_Num_Negative_Frequencies> (1)
0

>  <r_j_Zero_Point_Energy_(kcal/mol)> (1)
282.412804030949

>  <r_j_Entropy_(cal/mol/K)_298.15K_1.00E+00atm> (1)
139.51711190669

>  <r_j_Enthalpy_(kcal/mol)_298.15K_1.00E+00atm> (1)
13.2535866896753

>  <r_j_Free_Energy_(kcal/mol)_298.15K_1.00E+00atm> (1)
-28.3434402253044

>  <r_j_Internal_Energy_(kcal/mol)_298.15K_1.00E+00atm> (1)
12.661101100848

>  <r_j_Heat_Capacity_(cal/mol/K)_298.15K_1.00E+00atm> (1)
85.1073543819436

>  <r_j_ln(Q)_298.15K_1.00E+00atm> (1)
47.8381934679719

>  <r_j_Total_Internal_Energy_(au)_298.15K_1.00E+00atm> (1)
-929.993257579834

>  <r_j_Total_Enthalpy_(au)_298.15K_1.00E+00atm> (1)
-929.992313393942

>  <r_j_Total_Free_Energy_(au)_298.15K_1.00E+00atm> (1)
-930.058602476265

>  <r_epik_Ionization_Penalty> (1)
  0.0048

>  <r_epik_Ionization_Penalty_Charging> (1)
  0.0048

>  <r_epik_Ionization_Penalty_Neutral> (1)
  0.0000

>  <r_epik_State_Penalty> (1)
  0.0035

>  <r_epik_Charging_Adjusted_Penalty> (1)
0.0082738663724137

>  <i_epik_Tot_Q> (1)
-1

>  <i_epik_Tot_abs_Q> (1)
1

>  <s_lp_Force_Field> (1)
S-OPLS

>  <r_lp_Energy> (1)
52.330692

>  <b_lp_Chiralities_Consistent> (1)
1

$$$$
