162384_Tetradecenoic acid
                    3D
 Schrodinger Suite 2021-3.
 41 40  0  0  1  0            999 V2000
   -4.7043    4.3864   -0.0857 C   0  0  0  0  0  0
   -4.1125    2.9841    0.0866 C   0  0  0  0  0  0
   -2.5909    2.9431   -0.0995 C   0  0  0  0  0  0
   -1.9975    1.5389    0.0587 C   0  0  0  0  0  0
   -0.4750    1.4864   -0.1141 C   0  0  0  0  0  0
    0.0986    0.0709    0.0178 C   0  0  0  0  0  0
    1.6227    0.0013   -0.1319 C   0  0  0  0  0  0
    2.1742   -1.4265   -0.0406 C   0  0  0  0  0  0
    3.7008   -1.5038   -0.1438 C   0  0  0  0  0  0
    4.2400   -2.9382   -0.1069 C   0  0  0  0  0  0
    5.7831   -3.0031   -0.0679 C   0  0  0  0  0  0
    6.3538   -2.4484    1.2103 C   0  0  0  0  0  0
    7.0841   -1.3365    1.3367 C   0  0  0  0  0  0
    7.6003   -0.7980    2.6899 C   0  0  0  0  0  0
    8.2649    0.2670    2.5968 O   0  0  0  0  0  0
    7.2963   -1.4756    3.7060 O   0  5  0  0  0  0
   -5.7908    4.3875    0.0553 H   0  0  0  0  0  0
   -4.4972    4.7804   -1.0876 H   0  0  0  0  0  0
   -4.2728    5.0873    0.6384 H   0  0  0  0  0  0
   -4.3641    2.5991    1.0844 H   0  0  0  0  0  0
   -4.5825    2.2965   -0.6303 H   0  0  0  0  0  0
   -2.3363    3.3365   -1.0945 H   0  0  0  0  0  0
   -2.1184    3.6233    0.6238 H   0  0  0  0  0  0
   -2.2625    1.1433    1.0500 H   0  0  0  0  0  0
   -2.4687    0.8637   -0.6707 H   0  0  0  0  0  0
   -0.2055    1.8981   -1.0976 H   0  0  0  0  0  0
   -0.0009    2.1433    0.6288 H   0  0  0  0  0  0
   -0.1872   -0.3455    0.9946 H   0  0  0  0  0  0
   -0.3708   -0.5792   -0.7356 H   0  0  0  0  0  0
    1.9151    0.4433   -1.0956 H   0  0  0  0  0  0
    2.0948    0.6229    0.6413 H   0  0  0  0  0  0
    1.8554   -1.8756    0.9114 H   0  0  0  0  0  0
    1.7160   -2.0399   -0.8319 H   0  0  0  0  0  0
    4.0305   -1.0191   -1.0751 H   0  0  0  0  0  0
    4.1606   -0.9349    0.6730 H   0  0  0  0  0  0
    3.8427   -3.4491    0.7823 H   0  0  0  0  0  0
    3.8609   -3.4940   -0.9785 H   0  0  0  0  0  0
    6.0841   -4.0553   -0.1973 H   0  0  0  0  0  0
    6.1870   -2.4553   -0.9316 H   0  0  0  0  0  0
    6.1237   -2.9787    2.1366 H   0  0  0  0  0  0
    7.3504   -0.7477    0.4543 H   0  0  0  0  0  0
  1  2  1  0  0  0
  1 17  1  0  0  0
  1 18  1  0  0  0
  1 19  1  0  0  0
  2  3  1  0  0  0
  2 20  1  0  0  0
  2 21  1  0  0  0
  3  4  1  0  0  0
  3 22  1  0  0  0
  3 23  1  0  0  0
  4  5  1  0  0  0
  4 24  1  0  0  0
  4 25  1  0  0  0
  5  6  1  0  0  0
  5 26  1  0  0  0
  5 27  1  0  0  0
  6  7  1  0  0  0
  6 28  1  0  0  0
  6 29  1  0  0  0
  7  8  1  0  0  0
  7 30  1  0  0  0
  7 31  1  0  0  0
  8  9  1  0  0  0
  8 32  1  0  0  0
  8 33  1  0  0  0
  9 10  1  0  0  0
  9 34  1  0  0  0
  9 35  1  0  0  0
 10 11  1  0  0  0
 10 36  1  0  0  0
 10 37  1  0  0  0
 11 12  1  0  0  0
 11 38  1  0  0  0
 11 39  1  0  0  0
 12 13  2  0  0  0
 12 40  1  0  0  0
 13 14  1  0  0  0
 13 41  1  0  0  0
 14 15  2  0  0  0
 14 16  1  0  0  0
M  END
>  <s_lp_Force_Field> (1)
S-OPLS

>  <r_lp_Energy> (1)
8.569036

>  <b_lp_Chiralities_Consistent> (1)
1

>  <r_epik_Ionization_Penalty> (1)
  0.0030

>  <r_epik_Ionization_Penalty_Charging> (1)
  0.0030

>  <r_epik_Ionization_Penalty_Neutral> (1)
  0.0000

>  <r_epik_State_Penalty> (1)
  0.0021

>  <r_epik_Charging_Adjusted_Penalty> (1)
0.00507066606519717

>  <i_epik_Tot_Q> (1)
-1

>  <i_epik_Tot_abs_Q> (1)
1

>  <i_m_Spin_multiplicity> (1)
1

>  <s_j_Task> (1)
Single Point

>  <s_j_QM_Method> (1)
DFT(b3lyp-d3)

>  <s_j_QM_Basis> (1)
6-31g**

>  <i_j_Number_of_canonical_orbitals> (1)
365

>  <i_j_Geometry_convergence_category> (1)
3

>  <r_j_Gas_Phase_Energy> (1)
-699.110790395886

>  <r_j_Final_Energy> (1)
-699.110790395886

>  <r_j_HOMO> (1)
-0.0111925230482282

>  <r_j_LUMO> (1)
0.141253827560791

>  <r_j_Polarizability> (1)
160.705690892218

>  <r_j_QM_Dipole_(debye)> (1)
25.5652646451428

>  <r_j_QM_Dipole_X_(debye)> (1)
-23.2095622704093

>  <r_j_QM_Dipole_Y_(debye)> (1)
3.21997812531765

>  <r_j_QM_Dipole_Z_(debye)> (1)
-10.2240264311403

>  <r_j_Lowest_Frequency_(cm-1)> (1)
21.8077122776096

>  <r_j_Highest_Frequency_(cm-1)> (1)
3129.47336796078

>  <r_j_2nd_Lowest_Frequency_(cm-1)> (1)
33.0456424524078

>  <i_j_Num_Negative_Frequencies> (1)
0

>  <r_j_Zero_Point_Energy_(kcal/mol)> (1)
231.461203383498

>  <r_j_Entropy_(cal/mol/K)_298.15K_1.00E+00atm> (1)
140.353684174702

>  <r_j_Enthalpy_(kcal/mol)_298.15K_1.00E+00atm> (1)
12.3606976291363

>  <r_j_Free_Energy_(kcal/mol)_298.15K_1.00E+00atm> (1)
-29.485753307551

>  <r_j_Internal_Energy_(kcal/mol)_298.15K_1.00E+00atm> (1)
11.7682120403091

>  <r_j_Heat_Capacity_(cal/mol/K)_298.15K_1.00E+00atm> (1)
68.7404195953707

>  <r_j_ln(Q)_298.15K_1.00E+00atm> (1)
49.7661949312777

>  <r_j_Total_Internal_Energy_(au)_298.15K_1.00E+00atm> (1)
-698.72317964728

>  <r_j_Total_Enthalpy_(au)_298.15K_1.00E+00atm> (1)
-698.722235461388

>  <r_j_Total_Free_Energy_(au)_298.15K_1.00E+00atm> (1)
-698.788922026193

$$$$
