16269_N-butylcyclopentane
                    3D
 Schrodinger Suite 2021-3.
 27 27  0  0  1  0            999 V2000
   -0.6585    1.4939   -0.0739 C   0  0  0  0  0  0
   -0.0878    0.0728   -0.0502 C   0  0  0  0  0  0
    1.4437    0.0416    0.0155 C   0  0  0  0  0  0
    2.0208   -1.3793    0.0395 C   0  0  0  0  0  0
    3.5505   -1.4348    0.0611 C   0  0  0  0  0  0
    4.2074   -0.8149    1.3163 C   0  0  0  0  0  0
    5.6089   -1.4800    1.4361 C   0  0  0  0  0  0
    5.6165   -2.6431    0.4039 C   0  0  0  0  0  0
    4.1372   -2.8571    0.0437 C   0  0  0  0  0  0
   -1.7526    1.4889   -0.1199 H   0  0  0  0  0  0
   -0.2906    2.0516   -0.9431 H   0  0  0  0  0  0
   -0.3647    2.0516    0.8229 H   0  0  0  0  0  0
   -0.4970   -0.4738    0.8106 H   0  0  0  0  0  0
   -0.4226   -0.4735   -0.9427 H   0  0  0  0  0  0
    1.8551    0.5863   -0.8469 H   0  0  0  0  0  0
    1.7769    0.5900    0.9070 H   0  0  0  0  0  0
    1.6339   -1.9139    0.9200 H   0  0  0  0  0  0
    1.6529   -1.9306   -0.8375 H   0  0  0  0  0  0
    3.9300   -0.9040   -0.8265 H   0  0  0  0  0  0
    4.2618    0.2767    1.2661 H   0  0  0  0  0  0
    3.5946   -1.0599    2.1938 H   0  0  0  0  0  0
    6.4145   -0.7674    1.2326 H   0  0  0  0  0  0
    5.7741   -1.8528    2.4521 H   0  0  0  0  0  0
    6.1688   -2.3436   -0.4950 H   0  0  0  0  0  0
    6.0995   -3.5473    0.7873 H   0  0  0  0  0  0
    3.6399   -3.4627    0.8150 H   0  0  0  0  0  0
    3.9929   -3.3684   -0.9144 H   0  0  0  0  0  0
  1  2  1  0  0  0
  1 10  1  0  0  0
  1 11  1  0  0  0
  1 12  1  0  0  0
  2  3  1  0  0  0
  2 13  1  0  0  0
  2 14  1  0  0  0
  3  4  1  0  0  0
  3 15  1  0  0  0
  3 16  1  0  0  0
  4  5  1  0  0  0
  4 17  1  0  0  0
  4 18  1  0  0  0
  5  9  1  0  0  0
  5  6  1  0  0  0
  5 19  1  0  0  0
  6  7  1  0  0  0
  6 20  1  0  0  0
  6 21  1  0  0  0
  7  8  1  0  0  0
  7 22  1  0  0  0
  7 23  1  0  0  0
  8  9  1  0  0  0
  8 24  1  0  0  0
  8 25  1  0  0  0
  9 26  1  0  0  0
  9 27  1  0  0  0
M  END
>  <i_m_Spin_multiplicity> (1)
1

>  <s_j_Task> (1)
Single Point

>  <s_j_QM_Method> (1)
DFT(b3lyp-d3)

>  <s_j_QM_Basis> (1)
cc-pvtz(-f)

>  <i_j_Number_of_canonical_orbitals> (1)
365

>  <i_j_Geometry_convergence_category> (1)
3

>  <r_j_Gas_Phase_Energy> (1)
-353.952723256454

>  <r_j_Final_Energy> (1)
-353.952723256454

>  <r_j_HOMO> (1)
-0.309778023401084

>  <r_j_LUMO> (1)
0.0180256243840658

>  <r_j_Polarizability> (1)
106.51959724902

>  <r_j_QM_Dipole_(debye)> (1)
0.0661616018145826

>  <r_j_QM_Dipole_X_(debye)> (1)
0.0112997303330732

>  <r_j_QM_Dipole_Y_(debye)> (1)
-0.0183581365659243

>  <r_j_QM_Dipole_Z_(debye)> (1)
-0.0625511987966503

>  <r_j_Lowest_Frequency_(cm-1)> (1)
88.9378659167439

>  <r_j_Highest_Frequency_(cm-1)> (1)
3047.5138397187

>  <r_j_2nd_Lowest_Frequency_(cm-1)> (1)
115.050675363141

>  <i_j_Num_Negative_Frequencies> (1)
0

>  <r_j_Zero_Point_Energy_(kcal/mol)> (1)
159.041607439061

>  <r_j_Entropy_(cal/mol/K)_298.15K_1.00E+00atm> (1)
96.1363846478294

>  <r_j_Enthalpy_(kcal/mol)_298.15K_1.00E+00atm> (1)
6.79248869935931

>  <r_j_Free_Energy_(kcal/mol)_298.15K_1.00E+00atm> (1)
-21.870574383391

>  <r_j_Internal_Energy_(kcal/mol)_298.15K_1.00E+00atm> (1)
6.20000311053203

>  <r_j_Heat_Capacity_(cal/mol/K)_298.15K_1.00E+00atm> (1)
38.0371917416405

>  <r_j_ln(Q)_298.15K_1.00E+00atm> (1)
36.9132596569651

>  <r_j_Total_Internal_Energy_(au)_298.15K_1.00E+00atm> (1)
-353.689393986619

>  <r_j_Total_Enthalpy_(au)_298.15K_1.00E+00atm> (1)
-353.688449800727

>  <r_j_Total_Free_Energy_(au)_298.15K_1.00E+00atm> (1)
-353.734127299559

>  <r_lp_tautomer_probability> (1)
1

>  <r_epik_Ionization_Penalty> (1)
  0.0000

>  <r_epik_Ionization_Penalty_Charging> (1)
  0.0000

>  <r_epik_Ionization_Penalty_Neutral> (1)
  0.0000

>  <r_epik_State_Penalty> (1)
  0.0000

>  <r_epik_Charging_Adjusted_Penalty> (1)
0

>  <i_epik_Tot_Q> (1)
0

>  <i_epik_Tot_abs_Q> (1)
0

>  <s_lp_Force_Field> (1)
S-OPLS

>  <r_lp_Energy> (1)
8.456802

>  <b_lp_Chiralities_Consistent> (1)
1

$$$$
