16270_Propylcyclopentane
                    3D
 Schrodinger Suite 2021-3.
 24 24  0  0  1  0            999 V2000
   -0.5951    1.5005    0.0922 C   0  0  0  0  0  0
   -0.0698    0.0641    0.0125 C   0  0  0  0  0  0
    1.4625   -0.0107   -0.0183 C   0  0  0  0  0  0
    2.0192   -1.4361   -0.0519 C   0  0  0  0  0  0
    1.6468   -2.2518   -1.3109 C   0  0  0  0  0  0
    2.7230   -3.3686   -1.4258 C   0  0  0  0  0  0
    3.8394   -2.9886   -0.4109 C   0  0  0  0  0  0
    3.5553   -1.5228   -0.0418 C   0  0  0  0  0  0
   -1.6896    1.5293    0.1132 H   0  0  0  0  0  0
   -0.2624    2.0896   -0.7704 H   0  0  0  0  0  0
   -0.2302    2.0044    0.9948 H   0  0  0  0  0  0
   -0.4411   -0.5123    0.8712 H   0  0  0  0  0  0
   -0.4777   -0.4251   -0.8812 H   0  0  0  0  0  0
    1.8351    0.5380   -0.8965 H   0  0  0  0  0  0
    1.8641    0.5133    0.8608 H   0  0  0  0  0  0
    1.6461   -1.9756    0.8333 H   0  0  0  0  0  0
    0.6286   -2.6503   -1.2697 H   0  0  0  0  0  0
    1.6919   -1.5898   -2.1860 H   0  0  0  0  0  0
    2.3059   -4.3549   -1.1991 H   0  0  0  0  0  0
    3.1159   -3.4251   -2.4459 H   0  0  0  0  0  0
    3.7569   -3.6115    0.4877 H   0  0  0  0  0  0
    4.8462   -3.1411   -0.8117 H   0  0  0  0  0  0
    3.9595   -0.8496   -0.8113 H   0  0  0  0  0  0
    3.9955   -1.2236    0.9157 H   0  0  0  0  0  0
  1  2  1  0  0  0
  1  9  1  0  0  0
  1 10  1  0  0  0
  1 11  1  0  0  0
  2  3  1  0  0  0
  2 12  1  0  0  0
  2 13  1  0  0  0
  3  4  1  0  0  0
  3 14  1  0  0  0
  3 15  1  0  0  0
  4  8  1  0  0  0
  4  5  1  0  0  0
  4 16  1  0  0  0
  5  6  1  0  0  0
  5 17  1  0  0  0
  5 18  1  0  0  0
  6  7  1  0  0  0
  6 19  1  0  0  0
  6 20  1  0  0  0
  7  8  1  0  0  0
  7 21  1  0  0  0
  7 22  1  0  0  0
  8 23  1  0  0  0
  8 24  1  0  0  0
M  END
>  <i_m_Spin_multiplicity> (1)
1

>  <s_j_Task> (1)
Single Point

>  <s_j_QM_Method> (1)
DFT(b3lyp-d3)

>  <s_j_QM_Basis> (1)
cc-pvtz(-f)

>  <i_j_Number_of_canonical_orbitals> (1)
325

>  <i_j_Geometry_convergence_category> (1)
3

>  <r_j_Gas_Phase_Energy> (1)
-314.623239719084

>  <r_j_Final_Energy> (1)
-314.623239719084

>  <r_j_HOMO> (1)
-0.309584966489224

>  <r_j_LUMO> (1)
0.0194143277822044

>  <r_j_Polarizability> (1)
94.1749569472924

>  <r_j_QM_Dipole_(debye)> (1)
0.0966258084381408

>  <r_j_QM_Dipole_X_(debye)> (1)
-0.029793248019106

>  <r_j_QM_Dipole_Y_(debye)> (1)
-0.0709339300967795

>  <r_j_QM_Dipole_Z_(debye)> (1)
0.0584575640086168

>  <r_j_Lowest_Frequency_(cm-1)> (1)
108.987608435875

>  <r_j_Highest_Frequency_(cm-1)> (1)
3048.13733712529

>  <r_j_2nd_Lowest_Frequency_(cm-1)> (1)
134.788557913405

>  <i_j_Num_Negative_Frequencies> (1)
0

>  <r_j_Zero_Point_Energy_(kcal/mol)> (1)
141.187743021487

>  <r_j_Entropy_(cal/mol/K)_298.15K_1.00E+00atm> (1)
89.8433587036786

>  <r_j_Enthalpy_(kcal/mol)_298.15K_1.00E+00atm> (1)
6.01804355019153

>  <r_j_Free_Energy_(kcal/mol)_298.15K_1.00E+00atm> (1)
-20.7687538473102

>  <r_j_Internal_Energy_(kcal/mol)_298.15K_1.00E+00atm> (1)
5.42555796136426

>  <r_j_Heat_Capacity_(cal/mol/K)_298.15K_1.00E+00atm> (1)
33.2832644494437

>  <r_j_ln(Q)_298.15K_1.00E+00atm> (1)
35.0536017060238

>  <r_j_Total_Internal_Energy_(au)_298.15K_1.00E+00atm> (1)
-314.389596550348

>  <r_j_Total_Enthalpy_(au)_298.15K_1.00E+00atm> (1)
-314.388652364456

>  <r_j_Total_Free_Energy_(au)_298.15K_1.00E+00atm> (1)
-314.431339843575

>  <r_lp_tautomer_probability> (1)
1

>  <r_epik_Ionization_Penalty> (1)
  0.0000

>  <r_epik_Ionization_Penalty_Charging> (1)
  0.0000

>  <r_epik_Ionization_Penalty_Neutral> (1)
  0.0000

>  <r_epik_State_Penalty> (1)
  0.0000

>  <r_epik_Charging_Adjusted_Penalty> (1)
0

>  <i_epik_Tot_Q> (1)
0

>  <i_epik_Tot_abs_Q> (1)
0

>  <s_lp_Force_Field> (1)
S-OPLS

>  <r_lp_Energy> (1)
7.98205

>  <b_lp_Chiralities_Consistent> (1)
1

$$$$
