16450_3-nitrobiphenyl
                    3D
 Schrodinger Suite 2021-3.
 24 25  0  0  1  0            999 V2000
   -2.8052    0.0032   -0.0011 C   0  0  0  0  0  0
   -2.0965   -1.1942    0.1031 C   0  0  0  0  0  0
   -0.7036   -1.1864    0.1031 C   0  0  0  0  0  0
    0.0081    0.0194   -0.0031 C   0  0  0  0  0  0
   -0.7171    1.2168   -0.1060 C   0  0  0  0  0  0
   -2.1099    1.2084   -0.1044 C   0  0  0  0  0  0
    1.4923    0.0256   -0.0111 C   0  0  0  0  0  0
    2.2095    1.0372    0.6413 C   0  0  0  0  0  0
    3.6003    1.0174    0.6150 C   0  0  0  0  0  0
    4.3230    0.0205   -0.0357 C   0  0  0  0  0  0
    3.6100   -0.9843   -0.6838 C   0  0  0  0  0  0
    2.2162   -0.9807   -0.6743 C   0  0  0  0  0  0
    4.3378    2.0884    1.3096 N   0  3  1  0  0  0
    5.5679    2.0417    1.2888 O   0  0  0  0  0  0
    3.6819    2.9680    1.8678 O   0  5  0  0  0  0
   -3.8910   -0.0028   -0.0014 H   0  0  0  0  0  0
   -2.6289   -2.1366    0.1923 H   0  0  0  0  0  0
   -0.1619   -2.1216    0.2107 H   0  0  0  0  0  0
   -0.1863    2.1579   -0.2121 H   0  0  0  0  0  0
   -2.6528    2.1449   -0.1924 H   0  0  0  0  0  0
    1.7037    1.8252    1.1846 H   0  0  0  0  0  0
    5.4049    0.0469   -0.0266 H   0  0  0  0  0  0
    4.1451   -1.7701   -1.2073 H   0  0  0  0  0  0
    1.6768   -1.7576   -1.2070 H   0  0  0  0  0  0
  1  6  1  0  0  0
  1  2  2  0  0  0
  1 16  1  0  0  0
  2  3  1  0  0  0
  2 17  1  0  0  0
  3  4  2  0  0  0
  3 18  1  0  0  0
  4  5  1  0  0  0
  4  7  1  0  0  0
  5  6  2  0  0  0
  5 19  1  0  0  0
  6 20  1  0  0  0
  7 12  1  0  0  0
  7  8  2  0  0  0
  8  9  1  0  0  0
  8 21  1  0  0  0
  9 10  2  0  0  0
  9 13  1  0  0  0
 10 11  1  0  0  0
 10 22  1  0  0  0
 11 12  2  0  0  0
 11 23  1  0  0  0
 12 24  1  0  0  0
 13 14  2  0  0  0
 13 15  1  0  0  0
M  END
>  <i_m_Spin_multiplicity> (1)
1

>  <s_j_Task> (1)
Single Point

>  <s_j_QM_Method> (1)
DFT(b3lyp-d3)

>  <s_j_QM_Basis> (1)
cc-pvtz(-f)

>  <i_j_Number_of_canonical_orbitals> (1)
416

>  <i_j_Geometry_convergence_category> (1)
0

>  <r_j_Gas_Phase_Energy> (1)
-668.037493968599

>  <r_j_Final_Energy> (1)
-668.037493968599

>  <r_j_HOMO> (1)
-0.251574065581353

>  <r_j_LUMO> (1)
-0.0977640768527112

>  <r_j_Polarizability> (1)
153.449138587617

>  <r_j_QM_Dipole_(debye)> (1)
4.89730084490737

>  <r_j_QM_Dipole_X_(debye)> (1)
-2.93483018852782

>  <r_j_QM_Dipole_Y_(debye)> (1)
-3.28242657152165

>  <r_j_QM_Dipole_Z_(debye)> (1)
-2.14382908194771

>  <r_j_Lowest_Frequency_(cm-1)> (1)
81.6018032774132

>  <r_j_Highest_Frequency_(cm-1)> (1)
3188.61186086808

>  <r_j_2nd_Lowest_Frequency_(cm-1)> (1)
88.7123871579092

>  <i_j_Num_Negative_Frequencies> (1)
0

>  <r_j_Zero_Point_Energy_(kcal/mol)> (1)
114.979335489621

>  <r_j_Entropy_(cal/mol/K)_298.15K_1.00E+00atm> (1)
103.901375070427

>  <r_j_Enthalpy_(kcal/mol)_298.15K_1.00E+00atm> (1)
7.51646923926914

>  <r_j_Free_Energy_(kcal/mol)_298.15K_1.00E+00atm> (1)
-23.4617257379786

>  <r_j_Internal_Energy_(kcal/mol)_298.15K_1.00E+00atm> (1)
6.92398365044186

>  <r_j_Heat_Capacity_(cal/mol/K)_298.15K_1.00E+00atm> (1)
44.414525693166

>  <r_j_ln(Q)_298.15K_1.00E+00atm> (1)
39.5988124950299

>  <r_j_Total_Internal_Energy_(au)_298.15K_1.00E+00atm> (1)
-667.843228662706

>  <r_j_Total_Enthalpy_(au)_298.15K_1.00E+00atm> (1)
-667.842284476814

>  <r_j_Total_Free_Energy_(au)_298.15K_1.00E+00atm> (1)
-667.891651373185

>  <r_lp_tautomer_probability> (1)
1

>  <r_epik_Ionization_Penalty> (1)
  0.0000

>  <r_epik_Ionization_Penalty_Charging> (1)
  0.0000

>  <r_epik_Ionization_Penalty_Neutral> (1)
  0.0000

>  <r_epik_State_Penalty> (1)
  0.0000

>  <r_epik_Charging_Adjusted_Penalty> (1)
0

>  <i_epik_Tot_Q> (1)
0

>  <i_epik_Tot_abs_Q> (1)
2

>  <s_lp_Force_Field> (1)
S-OPLS

>  <r_lp_Energy> (1)
26.259365

>  <b_lp_Chiralities_Consistent> (1)
1

$$$$
