16478_1,4,5-trimethylnaphthalene
                    3D
 Schrodinger Suite 2021-3.
 27 28  0  0  1  0            999 V2000
   -0.0519   -0.2836   -0.0001 C   0  0  0  0  0  0
    1.4518   -0.0366    0.0000 C   0  0  0  0  0  0
    2.1315    1.2377    0.0000 C   0  0  0  0  0  0
    1.4831    2.5297    0.0000 C   0  0  0  0  0  0
    2.2653    3.6679    0.0000 C   0  0  0  0  0  0
    3.6679    3.6321   -0.0001 C   0  0  0  0  0  0
    4.3478    2.4375    0.0000 C   0  0  0  0  0  0
    3.5914    1.2166    0.0000 C   0  0  0  0  0  0
    4.2727   -0.0294    0.0000 C   0  0  0  0  0  0
    3.5928   -1.2196    0.0000 C   0  0  0  0  0  0
    2.1916   -1.2078    0.0000 C   0  0  0  0  0  0
    5.8645    2.5018    0.0000 C   0  0  0  0  0  0
   -0.0132    2.7749    0.0001 C   0  0  0  0  0  0
   -0.6753    0.5976   -0.0001 H   0  0  0  0  0  0
   -0.3279   -0.8759    0.8798 H   0  0  0  0  0  0
   -0.3278   -0.8760   -0.8799 H   0  0  0  0  0  0
    1.7740    4.6372    0.0000 H   0  0  0  0  0  0
    4.2236    4.5669   -0.0001 H   0  0  0  0  0  0
    5.3546   -0.0473    0.0001 H   0  0  0  0  0  0
    4.1312   -2.1629    0.0000 H   0  0  0  0  0  0
    1.6565   -2.1547   -0.0001 H   0  0  0  0  0  0
    6.3611    1.5331    0.0003 H   0  0  0  0  0  0
    6.2205    3.0478    0.8808 H   0  0  0  0  0  0
    6.2205    3.0472   -0.8811 H   0  0  0  0  0  0
   -0.2054    3.8512    0.0003 H   0  0  0  0  0  0
   -0.5069    2.3624    0.8855 H   0  0  0  0  0  0
   -0.5070    2.3627   -0.8855 H   0  0  0  0  0  0
  1  2  1  0  0  0
  1 14  1  0  0  0
  1 15  1  0  0  0
  1 16  1  0  0  0
  2 11  1  0  0  0
  2  3  2  0  0  0
  3  8  1  0  0  0
  3  4  1  0  0  0
  4  5  2  0  0  0
  4 13  1  0  0  0
  5  6  1  0  0  0
  5 17  1  0  0  0
  6  7  2  0  0  0
  6 18  1  0  0  0
  7  8  1  0  0  0
  7 12  1  0  0  0
  8  9  2  0  0  0
  9 10  1  0  0  0
  9 19  1  0  0  0
 10 11  2  0  0  0
 10 20  1  0  0  0
 11 21  1  0  0  0
 12 22  1  0  0  0
 12 23  1  0  0  0
 12 24  1  0  0  0
 13 25  1  0  0  0
 13 26  1  0  0  0
 13 27  1  0  0  0
M  END
>  <i_m_Spin_multiplicity> (1)
1

>  <s_j_Task> (1)
Single Point

>  <s_j_QM_Method> (1)
DFT(b3lyp-d3)

>  <s_j_QM_Basis> (1)
cc-pvtz(-f)

>  <i_j_Number_of_canonical_orbitals> (1)
414

>  <i_j_Geometry_convergence_category> (1)
0

>  <r_j_Gas_Phase_Energy> (1)
-503.998908398216

>  <r_j_Final_Energy> (1)
-503.998908398216

>  <r_j_HOMO> (1)
-0.197545824254318

>  <r_j_LUMO> (1)
-0.0352343399583204

>  <r_j_Polarizability> (1)
152.270231222075

>  <r_j_QM_Dipole_(debye)> (1)
0.249750508574665

>  <r_j_QM_Dipole_X_(debye)> (1)
-0.228085057450756

>  <r_j_QM_Dipole_Y_(debye)> (1)
0.101747348413372

>  <r_j_QM_Dipole_Z_(debye)> (1)
1.3850527477143e-05

>  <r_j_Lowest_Frequency_(cm-1)> (1)
-98.5035059712063

>  <r_j_Highest_Frequency_(cm-1)> (1)
3215.88931115335

>  <r_j_2nd_Lowest_Frequency_(cm-1)> (1)
-65.3868623074583

>  <i_j_Num_Negative_Frequencies> (1)
2

>  <r_j_Zero_Point_Energy_(kcal/mol)> (1)
143.948589170794

>  <r_j_Entropy_(cal/mol/K)_298.15K_1.00E+00atm> (1)
96.4867627655016

>  <r_j_Enthalpy_(kcal/mol)_298.15K_1.00E+00atm> (1)
6.8316187220796

>  <r_j_Free_Energy_(kcal/mol)_298.15K_1.00E+00atm> (1)
-21.9359095964547

>  <r_j_Internal_Energy_(kcal/mol)_298.15K_1.00E+00atm> (1)
6.23913313325233

>  <r_j_Heat_Capacity_(cal/mol/K)_298.15K_1.00E+00atm> (1)
42.0144075741267

>  <r_j_ln(Q)_298.15K_1.00E+00atm> (1)
37.0235327408944

>  <r_j_Total_Internal_Energy_(au)_298.15K_1.00E+00atm> (1)
-503.759569026486

>  <r_j_Total_Enthalpy_(au)_298.15K_1.00E+00atm> (1)
-503.758624840594

>  <r_j_Total_Free_Energy_(au)_298.15K_1.00E+00atm> (1)
-503.804468815377

>  <r_lp_tautomer_probability> (1)
1

>  <r_epik_Ionization_Penalty> (1)
  0.0000

>  <r_epik_Ionization_Penalty_Charging> (1)
  0.0000

>  <r_epik_Ionization_Penalty_Neutral> (1)
  0.0000

>  <r_epik_State_Penalty> (1)
  0.0000

>  <r_epik_Charging_Adjusted_Penalty> (1)
0

>  <i_epik_Tot_Q> (1)
0

>  <i_epik_Tot_abs_Q> (1)
0

>  <s_lp_Force_Field> (1)
S-OPLS

>  <r_lp_Energy> (1)
38.1277

>  <b_lp_Chiralities_Consistent> (1)
1

$$$$
