16698_Amino, Tris(Methylene Phosphonic Acid)
                    3D
 Schrodinger Suite 2021-3.
 24 23  0  0  1  0            999 V2000
    0.7697    1.3028    0.4367 C   0  0  0  0  0  0
    2.1637    0.6976    0.4878 N   0  3  1  0  0  0
    2.9615    1.2349    1.7035 C   0  0  0  0  0  0
    3.3251    3.0973    2.1519 P   0  0  1  0  0  0
    4.0187    2.8064    3.5079 O   0  0  0  0  0  0
    4.2498    3.6260    1.0414 O   0  5  0  0  0  0
    1.9443    3.7768    2.2629 O   0  5  0  0  0  0
    2.1460   -0.8436    0.4916 C   0  0  0  0  0  0
    2.8167   -1.8344   -0.9992 P   0  0  1  0  0  0
    2.9311   -3.2386   -0.3703 O   0  0  0  0  0  0
    1.6835   -1.7167   -2.0725 O   0  5  0  0  0  0
    4.1299   -1.1416   -1.3849 O   0  5  0  0  0  0
   -0.3531    1.0618   -1.0648 P   0  0  1  0  0  0
   -1.7177    1.5146   -0.5506 O   0  0  0  0  0  0
    0.2696    1.7669   -2.2570 O   0  5  0  0  0  0
   -0.4063   -0.5484   -1.2646 O   0  0  0  0  0  0
    0.2542    0.8809    1.3063 H   0  0  0  0  0  0
    0.9030    2.3699    0.6420 H   0  0  0  0  0  0
    2.4319    0.8066    2.5627 H   0  0  0  0  0  0
    3.9288    0.7291    1.6212 H   0  0  0  0  0  0
    2.7545   -1.1450    1.3457 H   0  0  0  0  0  0
    1.1112   -1.1381    0.6758 H   0  0  0  0  0  0
    0.4792   -0.9850   -1.6359 H   0  0  0  0  0  0
    2.6743    0.9827   -0.3556 H   0  0  0  0  0  0
  1  2  1  0  0  0
  1 13  1  0  0  0
  1 17  1  0  0  0
  1 18  1  0  0  0
  2  3  1  0  0  0
  2  8  1  0  0  0
  2 24  1  0  0  0
  3  4  1  0  0  0
  3 19  1  0  0  0
  3 20  1  0  0  0
  4  5  2  0  0  0
  4  6  1  0  0  0
  4  7  1  0  0  0
  8  9  1  0  0  0
  8 21  1  0  0  0
  8 22  1  0  0  0
  9 10  2  0  0  0
  9 11  1  0  0  0
  9 12  1  0  0  0
 13 14  2  0  0  0
 13 15  1  0  0  0
 13 16  1  0  0  0
 16 23  1  0  0  0
M  END
>  <i_m_Spin_multiplicity> (1)
1

>  <s_j_Task> (1)
Single Point

>  <s_j_QM_Method> (1)
DFT(b3lyp-d3)

>  <s_j_QM_Basis> (1)
cc-pvtz(-f)

>  <i_j_Number_of_canonical_orbitals> (1)
452

>  <i_j_Geometry_convergence_category> (1)
3

>  <r_j_Gas_Phase_Energy> (1)
-1875.27398757907

>  <r_j_Final_Energy> (1)
-1875.27398757907

>  <r_j_HOMO> (1)
0.293470543612103

>  <r_j_LUMO> (1)
0.472997339689441

>  <r_j_Polarizability> (1)
148.211000517855

>  <r_j_QM_Dipole_(debye)> (1)
5.91718526805496

>  <r_j_QM_Dipole_X_(debye)> (1)
-4.04058774050788

>  <r_j_QM_Dipole_Y_(debye)> (1)
-4.32233185256408

>  <r_j_QM_Dipole_Z_(debye)> (1)
0.064649547979736

>  <r_j_Lowest_Frequency_(cm-1)> (1)
57.5763647825289

>  <r_j_Highest_Frequency_(cm-1)> (1)
3366.2974119815

>  <r_j_2nd_Lowest_Frequency_(cm-1)> (1)
59.0496852010757

>  <i_j_Num_Negative_Frequencies> (1)
0

>  <r_j_Zero_Point_Energy_(kcal/mol)> (1)
94.1843030888604

>  <r_j_Entropy_(cal/mol/K)_298.15K_1.00E+00atm> (1)
128.010389167171

>  <r_j_Enthalpy_(kcal/mol)_298.15K_1.00E+00atm> (1)
10.7966693119094

>  <r_j_Free_Energy_(kcal/mol)_298.15K_1.00E+00atm> (1)
-27.3696282182825

>  <r_j_Internal_Energy_(kcal/mol)_298.15K_1.00E+00atm> (1)
10.2041837230821

>  <r_j_Heat_Capacity_(cal/mol/K)_298.15K_1.00E+00atm> (1)
60.6572686008202

>  <r_j_ln(Q)_298.15K_1.00E+00atm> (1)
46.1945889223332

>  <r_j_Total_Internal_Energy_(au)_298.15K_1.00E+00atm> (1)
-1875.10763393533

>  <r_j_Total_Enthalpy_(au)_298.15K_1.00E+00atm> (1)
-1875.10668974944

>  <r_j_Total_Free_Energy_(au)_298.15K_1.00E+00atm> (1)
-1875.16751161645

>  <r_epik_Ionization_Penalty> (1)
  1.3245

>  <r_epik_Ionization_Penalty_Charging> (1)
  0.0160

>  <r_epik_Ionization_Penalty_Neutral> (1)
  1.3085

>  <r_epik_State_Penalty> (1)
  0.0151

>  <r_epik_Charging_Adjusted_Penalty> (1)
0.031157

>  <i_epik_Tot_Q> (1)
-4

>  <i_epik_Tot_abs_Q> (1)
6

>  <s_lp_Force_Field> (1)
S-OPLS

>  <r_lp_Energy> (1)
-11.8768

>  <b_lp_Chiralities_Consistent> (1)
1

$$$$
