168556_Ethyl isopropyl benzene
                    3D
 Schrodinger Suite 2021-3.
 27 27  0  0  1  0            999 V2000
   -0.9028    3.7919   -0.0005 C   0  0  0  0  0  0
   -0.0242    2.5380   -0.0003 C   0  0  0  0  0  0
   -0.7528    1.1994    0.0000 C   0  0  0  0  0  0
   -2.1531    1.1440   -0.0003 C   0  0  0  0  0  0
   -2.8401   -0.0692   -0.0001 C   0  0  0  0  0  0
   -2.1260   -1.2637    0.0003 C   0  0  0  0  0  0
   -0.7338   -1.2244    0.0005 C   0  0  0  0  0  0
   -0.0277   -0.0148    0.0004 C   0  0  0  0  0  0
    1.4993   -0.0595    0.0004 C   0  0  0  0  0  0
    2.0432   -0.7396   -1.2701 C   0  0  0  0  0  0
    2.0436   -0.7411    1.2698 C   0  0  0  0  0  0
   -0.2770    4.6895   -0.0006 H   0  0  0  0  0  0
   -1.5456    3.8354    0.8848 H   0  0  0  0  0  0
   -1.5455    3.8351   -0.8860 H   0  0  0  0  0  0
    0.6407    2.5795   -0.8734 H   0  0  0  0  0  0
    0.6406    2.5798    0.8729 H   0  0  0  0  0  0
   -2.7276    2.0637   -0.0006 H   0  0  0  0  0  0
   -3.9265   -0.0762   -0.0003 H   0  0  0  0  0  0
   -2.6449   -2.2181    0.0004 H   0  0  0  0  0  0
   -0.1809   -2.1600    0.0008 H   0  0  0  0  0  0
    1.8819    0.9645    0.0010 H   0  0  0  0  0  0
    1.6773   -0.2396   -2.1724 H   0  0  0  0  0  0
    1.7334   -1.7888   -1.3234 H   0  0  0  0  0  0
    3.1385   -0.7148   -1.2837 H   0  0  0  0  0  0
    1.6774   -0.2426    2.1728 H   0  0  0  0  0  0
    3.1389   -0.7156    1.2835 H   0  0  0  0  0  0
    1.7347   -1.7906    1.3218 H   0  0  0  0  0  0
  1  2  1  0  0  0
  1 12  1  0  0  0
  1 13  1  0  0  0
  1 14  1  0  0  0
  2  3  1  0  0  0
  2 15  1  0  0  0
  2 16  1  0  0  0
  3  8  1  0  0  0
  3  4  2  0  0  0
  4  5  1  0  0  0
  4 17  1  0  0  0
  5  6  2  0  0  0
  5 18  1  0  0  0
  6  7  1  0  0  0
  6 19  1  0  0  0
  7  8  2  0  0  0
  7 20  1  0  0  0
  8  9  1  0  0  0
  9 10  1  0  0  0
  9 11  1  0  0  0
  9 21  1  0  0  0
 10 22  1  0  0  0
 10 23  1  0  0  0
 10 24  1  0  0  0
 11 25  1  0  0  0
 11 26  1  0  0  0
 11 27  1  0  0  0
M  END
>  <i_m_Spin_multiplicity> (1)
1

>  <s_j_Task> (1)
Single Point

>  <s_j_QM_Method> (1)
DFT(b3lyp-d3)

>  <s_j_QM_Basis> (1)
cc-pvtz(-f)

>  <i_j_Number_of_canonical_orbitals> (1)
389

>  <i_j_Geometry_convergence_category> (1)
3

>  <r_j_Gas_Phase_Energy> (1)
-428.979142401007

>  <r_j_Final_Energy> (1)
-428.979142401007

>  <r_j_HOMO> (1)
-0.235691334258852

>  <r_j_LUMO> (1)
-0.0070495430933647

>  <r_j_Polarizability> (1)
126.393310303297

>  <r_j_QM_Dipole_(debye)> (1)
0.735337359303574

>  <r_j_QM_Dipole_X_(debye)> (1)
0.572116817855019

>  <r_j_QM_Dipole_Y_(debye)> (1)
0.461956033393934

>  <r_j_QM_Dipole_Z_(debye)> (1)
-4.38855642032836e-05

>  <r_j_Lowest_Frequency_(cm-1)> (1)
66.1678051807511

>  <r_j_Highest_Frequency_(cm-1)> (1)
3154.25103323533

>  <r_j_2nd_Lowest_Frequency_(cm-1)> (1)
113.009169565191

>  <i_j_Num_Negative_Frequencies> (1)
0

>  <r_j_Zero_Point_Energy_(kcal/mol)> (1)
151.211777478941

>  <r_j_Entropy_(cal/mol/K)_298.15K_1.00E+00atm> (1)
99.3657247820816

>  <r_j_Enthalpy_(kcal/mol)_298.15K_1.00E+00atm> (1)
7.3558573035413

>  <r_j_Free_Energy_(kcal/mol)_298.15K_1.00E+00atm> (1)
-22.2700335402363

>  <r_j_Internal_Energy_(kcal/mol)_298.15K_1.00E+00atm> (1)
6.76337171471403

>  <r_j_Heat_Capacity_(cal/mol/K)_298.15K_1.00E+00atm> (1)
43.2013206277772

>  <r_j_ln(Q)_298.15K_1.00E+00atm> (1)
37.5874687253003

>  <r_j_Total_Internal_Energy_(au)_298.15K_1.00E+00atm> (1)
-428.72739297451

>  <r_j_Total_Enthalpy_(au)_298.15K_1.00E+00atm> (1)
-428.726448788618

>  <r_j_Total_Free_Energy_(au)_298.15K_1.00E+00atm> (1)
-428.773660651164

>  <r_lp_tautomer_probability> (1)
1

>  <r_epik_Ionization_Penalty> (1)
  0.0000

>  <r_epik_Ionization_Penalty_Charging> (1)
  0.0000

>  <r_epik_Ionization_Penalty_Neutral> (1)
  0.0000

>  <r_epik_State_Penalty> (1)
  0.0000

>  <r_epik_Charging_Adjusted_Penalty> (1)
0

>  <i_epik_Tot_Q> (1)
0

>  <i_epik_Tot_abs_Q> (1)
0

>  <s_lp_Force_Field> (1)
S-OPLS

>  <r_lp_Energy> (1)
16.2485

>  <b_lp_Chiralities_Consistent> (1)
1

$$$$
