16898_Heneicosanoic acid
                    3D
 Schrodinger Suite 2021-3.
 64 63  0  0  1  0            999 V2000
   -7.1472    8.1167    1.8618 C   0  0  0  0  0  0
   -6.5339    6.7423    1.5771 C   0  0  0  0  0  0
   -6.7008    6.3067    0.1145 C   0  0  0  0  0  0
   -6.1728    4.8964   -0.1918 C   0  0  0  0  0  0
   -4.6520    4.7426   -0.0581 C   0  0  0  0  0  0
   -4.1581    3.3246   -0.3673 C   0  0  0  0  0  0
   -2.6391    3.1671   -0.2341 C   0  0  0  0  0  0
   -2.1517    1.7295   -0.4472 C   0  0  0  0  0  0
   -0.6330    1.5736   -0.3075 C   0  0  0  0  0  0
   -0.1554    0.1209   -0.4140 C   0  0  0  0  0  0
    1.3624   -0.0361   -0.2652 C   0  0  0  0  0  0
    1.8266   -1.4971   -0.2610 C   0  0  0  0  0  0
    3.3451   -1.6493   -0.1020 C   0  0  0  0  0  0
    3.8385   -3.1045   -0.0602 C   0  0  0  0  0  0
    3.3537   -3.9036    1.1575 C   0  0  0  0  0  0
    3.9741   -5.3019    1.2560 C   0  0  0  0  0  0
    3.4721   -6.1015    2.4656 C   0  0  0  0  0  0
    4.1435   -7.4750    2.6327 C   0  0  0  0  0  0
    3.8816   -8.4606    1.4866 C   0  0  0  0  0  0
    4.5121   -9.8393    1.6823 C   0  0  0  0  0  0
    4.4531  -10.7516    0.3934 C   0  0  0  0  0  0
    4.4190  -10.1322   -0.7030 O   0  0  0  0  0  0
    4.4814  -11.9852    0.6175 O   0  5  0  0  0  0
   -7.0176    8.4068    2.9099 H   0  0  0  0  0  0
   -8.2216    8.1227    1.6437 H   0  0  0  0  0  0
   -6.6816    8.8916    1.2416 H   0  0  0  0  0  0
   -5.4697    6.7605    1.8421 H   0  0  0  0  0  0
   -6.9971    5.9895    2.2302 H   0  0  0  0  0  0
   -7.7675    6.3529   -0.1453 H   0  0  0  0  0  0
   -6.1983    7.0347   -0.5392 H   0  0  0  0  0  0
   -6.6686    4.1743    0.4731 H   0  0  0  0  0  0
   -6.4668    4.6176   -1.2128 H   0  0  0  0  0  0
   -4.1556    5.4594   -0.7285 H   0  0  0  0  0  0
   -4.3366    5.0107    0.9587 H   0  0  0  0  0  0
   -4.6560    2.6154    0.3096 H   0  0  0  0  0  0
   -4.4679    3.0400   -1.3831 H   0  0  0  0  0  0
   -2.1387    3.8353   -0.9499 H   0  0  0  0  0  0
   -2.3271    3.5070    0.7642 H   0  0  0  0  0  0
   -2.6507    1.0705    0.2779 H   0  0  0  0  0  0
   -2.4660    1.3777   -1.4402 H   0  0  0  0  0  0
   -0.1311    2.1837   -1.0724 H   0  0  0  0  0  0
   -0.3159    1.9849    0.6620 H   0  0  0  0  0  0
   -0.6575   -0.4788    0.3588 H   0  0  0  0  0  0
   -0.4743   -0.3019   -1.3774 H   0  0  0  0  0  0
    1.8676    0.5108   -1.0747 H   0  0  0  0  0  0
    1.6844    0.4449    0.6701 H   0  0  0  0  0  0
    1.3137   -2.0274    0.5513 H   0  0  0  0  0  0
    1.5083   -1.9884   -1.1918 H   0  0  0  0  0  0
    3.8410   -1.1201   -0.9282 H   0  0  0  0  0  0
    3.6612   -1.1372    0.8191 H   0  0  0  0  0  0
    3.5326   -3.6227   -0.9800 H   0  0  0  0  0  0
    4.9370   -3.1046   -0.0665 H   0  0  0  0  0  0
    3.5819   -3.3364    2.0733 H   0  0  0  0  0  0
    2.2601   -4.0021    1.1289 H   0  0  0  0  0  0
    3.7662   -5.8600    0.3356 H   0  0  0  0  0  0
    5.0689   -5.2108    1.3127 H   0  0  0  0  0  0
    3.6262   -5.4992    3.3748 H   0  0  0  0  0  0
    2.3842   -6.2400    2.3736 H   0  0  0  0  0  0
    5.2293   -7.3300    2.7461 H   0  0  0  0  0  0
    3.8027   -7.9189    3.5797 H   0  0  0  0  0  0
    2.7946   -8.5706    1.3498 H   0  0  0  0  0  0
    4.2603   -8.0810    0.5316 H   0  0  0  0  0  0
    5.5759   -9.7145    1.9447 H   0  0  0  0  0  0
    4.0527  -10.3780    2.5217 H   0  0  0  0  0  0
  1  2  1  0  0  0
  1 24  1  0  0  0
  1 25  1  0  0  0
  1 26  1  0  0  0
  2  3  1  0  0  0
  2 27  1  0  0  0
  2 28  1  0  0  0
  3  4  1  0  0  0
  3 29  1  0  0  0
  3 30  1  0  0  0
  4  5  1  0  0  0
  4 31  1  0  0  0
  4 32  1  0  0  0
  5  6  1  0  0  0
  5 33  1  0  0  0
  5 34  1  0  0  0
  6  7  1  0  0  0
  6 35  1  0  0  0
  6 36  1  0  0  0
  7  8  1  0  0  0
  7 37  1  0  0  0
  7 38  1  0  0  0
  8  9  1  0  0  0
  8 39  1  0  0  0
  8 40  1  0  0  0
  9 10  1  0  0  0
  9 41  1  0  0  0
  9 42  1  0  0  0
 10 11  1  0  0  0
 10 43  1  0  0  0
 10 44  1  0  0  0
 11 12  1  0  0  0
 11 45  1  0  0  0
 11 46  1  0  0  0
 12 13  1  0  0  0
 12 47  1  0  0  0
 12 48  1  0  0  0
 13 14  1  0  0  0
 13 49  1  0  0  0
 13 50  1  0  0  0
 14 15  1  0  0  0
 14 51  1  0  0  0
 14 52  1  0  0  0
 15 16  1  0  0  0
 15 53  1  0  0  0
 15 54  1  0  0  0
 16 17  1  0  0  0
 16 55  1  0  0  0
 16 56  1  0  0  0
 17 18  1  0  0  0
 17 57  1  0  0  0
 17 58  1  0  0  0
 18 19  1  0  0  0
 18 59  1  0  0  0
 18 60  1  0  0  0
 19 20  1  0  0  0
 19 61  1  0  0  0
 19 62  1  0  0  0
 20 21  1  0  0  0
 20 63  1  0  0  0
 20 64  1  0  0  0
 21 22  2  0  0  0
 21 23  1  0  0  0
M  END
>  <s_lp_Force_Field> (1)
S-OPLS

>  <r_lp_Energy> (1)
14.349

>  <b_lp_Chiralities_Consistent> (1)
1

>  <r_epik_Ionization_Penalty> (1)
  0.0049

>  <r_epik_Ionization_Penalty_Charging> (1)
  0.0049

>  <r_epik_Ionization_Penalty_Neutral> (1)
  0.0000

>  <r_epik_State_Penalty> (1)
  0.0035

>  <r_epik_Charging_Adjusted_Penalty> (1)
0.00839778

>  <i_epik_Tot_Q> (1)
-1

>  <i_epik_Tot_abs_Q> (1)
1

>  <i_m_Spin_multiplicity> (1)
1

>  <s_j_Task> (1)
Single Point

>  <s_j_QM_Method> (1)
DFT(b3lyp-d3)

>  <s_j_QM_Basis> (1)
6-31g**

>  <i_j_Number_of_canonical_orbitals> (1)
550

>  <i_j_Geometry_convergence_category> (1)
1

>  <r_j_Gas_Phase_Energy> (1)
-975.574433187249

>  <r_j_Final_Energy> (1)
-975.574433187249

>  <r_j_HOMO> (1)
-0.00543563750117515

>  <r_j_LUMO> (1)
0.122049349057739

>  <r_j_Polarizability> (1)
239.63958019477

>  <r_j_QM_Dipole_(debye)> (1)
46.1153037879093

>  <r_j_QM_Dipole_X_(debye)> (1)
-19.3054971815468

>  <r_j_QM_Dipole_Y_(debye)> (1)
41.8450828570922

>  <r_j_QM_Dipole_Z_(debye)> (1)
1.70530428590899

>  <r_j_Lowest_Frequency_(cm-1)> (1)
10.6377173072069

>  <r_j_Highest_Frequency_(cm-1)> (1)
3105.24824592573

>  <r_j_2nd_Lowest_Frequency_(cm-1)> (1)
14.8293334127968

>  <i_j_Num_Negative_Frequencies> (1)
0

>  <r_j_Zero_Point_Energy_(kcal/mol)> (1)
372.378304709158

>  <r_j_Entropy_(cal/mol/K)_298.15K_1.00E+00atm> (1)
181.968031832552

>  <r_j_Enthalpy_(kcal/mol)_298.15K_1.00E+00atm> (1)
18.0969598311349

>  <r_j_Free_Energy_(kcal/mol)_298.15K_1.00E+00atm> (1)
-36.1568088597407

>  <r_j_Internal_Energy_(kcal/mol)_298.15K_1.00E+00atm> (1)
17.5044742423076

>  <r_j_Heat_Capacity_(cal/mol/K)_298.15K_1.00E+00atm> (1)
103.691051668773

>  <r_j_ln(Q)_298.15K_1.00E+00atm> (1)
61.0256342796573

>  <r_j_Total_Internal_Energy_(au)_298.15K_1.00E+00atm> (1)
-974.953115426178

>  <r_j_Total_Enthalpy_(au)_298.15K_1.00E+00atm> (1)
-974.952171240286

>  <r_j_Total_Free_Energy_(au)_298.15K_1.00E+00atm> (1)
-975.038630124629

$$$$
