16932_1-Methylpyrene
                    3D
 Schrodinger Suite 2021-3.
 29 32  0  0  1  0            999 V2000
   -0.0387   -0.0709    0.0001 C   0  0  0  0  0  0
    1.4719    0.0234    0.0000 C   0  0  0  0  0  0
    2.1838    1.2467    0.0000 C   0  0  0  0  0  0
    1.5398    2.5352   -0.0001 C   0  0  0  0  0  0
    2.2483    3.6960   -0.0001 C   0  0  0  0  0  0
    3.6823    3.7003    0.0000 C   0  0  0  0  0  0
    4.4292    4.8885    0.0000 C   0  0  0  0  0  0
    5.8215    4.8527    0.0001 C   0  0  0  0  0  0
    6.4959    3.6345    0.0001 C   0  0  0  0  0  0
    5.7893    2.4210    0.0001 C   0  0  0  0  0  0
    4.3606    2.4459    0.0000 C   0  0  0  0  0  0
    3.6183    1.2255    0.0000 C   0  0  0  0  0  0
    4.3199   -0.0160   -0.0001 C   0  0  0  0  0  0
    3.5802   -1.2072   -0.0001 C   0  0  0  0  0  0
    2.1933   -1.1773    0.0000 C   0  0  0  0  0  0
    5.7556   -0.0124    0.0000 C   0  0  0  0  0  0
    6.4591    1.1511    0.0001 C   0  0  0  0  0  0
   -0.5416    0.8958    0.0001 H   0  0  0  0  0  0
   -0.3878   -0.6216    0.8811 H   0  0  0  0  0  0
   -0.3879   -0.6217   -0.8807 H   0  0  0  0  0  0
    0.4575    2.5860   -0.0001 H   0  0  0  0  0  0
    1.7292    4.6510   -0.0001 H   0  0  0  0  0  0
    3.9068    5.8411   -0.0001 H   0  0  0  0  0  0
    6.3850    5.7812    0.0001 H   0  0  0  0  0  0
    7.5825    3.6123    0.0002 H   0  0  0  0  0  0
    4.1049   -2.1585   -0.0001 H   0  0  0  0  0  0
    1.6422   -2.1147    0.0000 H   0  0  0  0  0  0
    6.2719   -0.9683   -0.0001 H   0  0  0  0  0  0
    7.5459    1.1395    0.0001 H   0  0  0  0  0  0
  1  2  1  0  0  0
  1 18  1  0  0  0
  1 19  1  0  0  0
  1 20  1  0  0  0
  2 15  1  0  0  0
  2  3  2  0  0  0
  3 12  1  0  0  0
  3  4  1  0  0  0
  4  5  2  0  0  0
  4 21  1  0  0  0
  5  6  1  0  0  0
  5 22  1  0  0  0
  6 11  1  0  0  0
  6  7  2  0  0  0
  7  8  1  0  0  0
  7 23  1  0  0  0
  8  9  2  0  0  0
  8 24  1  0  0  0
  9 10  1  0  0  0
  9 25  1  0  0  0
 10 17  1  0  0  0
 10 11  2  0  0  0
 11 12  1  0  0  0
 12 13  2  0  0  0
 13 14  1  0  0  0
 13 16  1  0  0  0
 14 15  2  0  0  0
 14 26  1  0  0  0
 15 27  1  0  0  0
 16 17  2  0  0  0
 16 28  1  0  0  0
 17 29  1  0  0  0
M  END
>  <i_m_Spin_multiplicity> (1)
1

>  <s_j_Task> (1)
Single Point

>  <s_j_QM_Method> (1)
DFT(b3lyp-d3)

>  <s_j_QM_Basis> (1)
cc-pvtz(-f)

>  <i_j_Number_of_canonical_orbitals> (1)
483

>  <i_j_Geometry_convergence_category> (1)
3

>  <r_j_Gas_Phase_Energy> (1)
-655.30038550774

>  <r_j_Final_Energy> (1)
-655.30038550774

>  <r_j_HOMO> (1)
-0.190970209642403

>  <r_j_LUMO> (1)
-0.0526181044249181

>  <r_j_Polarizability> (1)
204.865731896697

>  <r_j_QM_Dipole_(debye)> (1)
0.598984591949968

>  <r_j_QM_Dipole_X_(debye)> (1)
-0.534640647712298

>  <r_j_QM_Dipole_Y_(debye)> (1)
-0.270077608292537

>  <r_j_QM_Dipole_Z_(debye)> (1)
6.86019437629348e-05

>  <r_j_Lowest_Frequency_(cm-1)> (1)
94.0948283774582

>  <r_j_Highest_Frequency_(cm-1)> (1)
3161.50008804852

>  <r_j_2nd_Lowest_Frequency_(cm-1)> (1)
112.462134141857

>  <i_j_Num_Negative_Frequencies> (1)
0

>  <r_j_Zero_Point_Energy_(kcal/mol)> (1)
146.664417773833

>  <r_j_Entropy_(cal/mol/K)_298.15K_1.00E+00atm> (1)
104.186753912837

>  <r_j_Enthalpy_(kcal/mol)_298.15K_1.00E+00atm> (1)
7.83917191599527

>  <r_j_Free_Energy_(kcal/mol)_298.15K_1.00E+00atm> (1)
-23.2241087631171

>  <r_j_Internal_Energy_(kcal/mol)_298.15K_1.00E+00atm> (1)
7.246686327168

>  <r_j_Heat_Capacity_(cal/mol/K)_298.15K_1.00E+00atm> (1)
49.987220844605

>  <r_j_ln(Q)_298.15K_1.00E+00atm> (1)
39.1977614326203

>  <r_j_Total_Internal_Energy_(au)_298.15K_1.00E+00atm> (1)
-655.055112549387

>  <r_j_Total_Enthalpy_(au)_298.15K_1.00E+00atm> (1)
-655.054168363495

>  <r_j_Total_Free_Energy_(au)_298.15K_1.00E+00atm> (1)
-655.103670852564

>  <r_lp_tautomer_probability> (1)
1

>  <r_epik_Ionization_Penalty> (1)
  0.0000

>  <r_epik_Ionization_Penalty_Charging> (1)
  0.0000

>  <r_epik_Ionization_Penalty_Neutral> (1)
  0.0000

>  <r_epik_State_Penalty> (1)
  0.0000

>  <r_epik_Charging_Adjusted_Penalty> (1)
0

>  <i_epik_Tot_Q> (1)
0

>  <i_epik_Tot_abs_Q> (1)
0

>  <s_lp_Force_Field> (1)
S-OPLS

>  <r_lp_Energy> (1)
40.8925

>  <b_lp_Chiralities_Consistent> (1)
1

$$$$
