17095_1-Tridecene
                    3D
 Schrodinger Suite 2021-3.
 39 38  0  0  1  0            999 V2000
   -5.1314    0.3516    2.2865 C   0  0  0  0  0  0
   -4.3660    0.9196    1.0878 C   0  0  0  0  0  0
   -2.8451    0.7742    1.2206 C   0  0  0  0  0  0
   -2.0805    1.3507    0.0221 C   0  0  0  0  0  0
   -0.5507    1.3024    0.1537 C   0  0  0  0  0  0
    0.0464   -0.1112    0.1783 C   0  0  0  0  0  0
    1.5793   -0.1094    0.1975 C   0  0  0  0  0  0
    2.1993   -1.5115    0.1950 C   0  0  0  0  0  0
    3.7320   -1.4893    0.1816 C   0  0  0  0  0  0
    4.3679   -2.8831    0.1440 C   0  0  0  0  0  0
    5.9070   -2.8357    0.1038 C   0  0  0  0  0  0
    6.5346   -4.2016    0.0883 C   0  0  0  0  0  0
    7.3034   -4.6864   -0.8866 C   0  0  0  0  0  0
   -6.2135    0.4684    2.1659 H   0  0  0  0  0  0
   -4.8425    0.8587    3.2144 H   0  0  0  0  0  0
   -4.9237   -0.7167    2.4170 H   0  0  0  0  0  0
   -4.6971    0.4180    0.1681 H   0  0  0  0  0  0
   -4.6174    1.9815    0.9603 H   0  0  0  0  0  0
   -2.5108    1.2775    2.1397 H   0  0  0  0  0  0
   -2.5981   -0.2879    1.3496 H   0  0  0  0  0  0
   -2.3824    0.8164   -0.8904 H   0  0  0  0  0  0
   -2.3905    2.3946   -0.1228 H   0  0  0  0  0  0
   -0.1064    1.8554   -0.6852 H   0  0  0  0  0  0
   -0.2472    1.8394    1.0640 H   0  0  0  0  0  0
   -0.3240   -0.6620    1.0528 H   0  0  0  0  0  0
   -0.3055   -0.6673   -0.7029 H   0  0  0  0  0  0
    1.9503    0.4496   -0.6736 H   0  0  0  0  0  0
    1.9312    0.4423    1.0811 H   0  0  0  0  0  0
    1.8482   -2.0699    1.0745 H   0  0  0  0  0  0
    1.8366   -2.0675   -0.6813 H   0  0  0  0  0  0
    4.0764   -0.9127   -0.6889 H   0  0  0  0  0  0
    4.0963   -0.9467    1.0658 H   0  0  0  0  0  0
    4.0428   -3.4600    1.0212 H   0  0  0  0  0  0
    4.0043   -3.4327   -0.7342 H   0  0  0  0  0  0
    6.2337   -2.2661   -0.7757 H   0  0  0  0  0  0
    6.2619   -2.2803    0.9850 H   0  0  0  0  0  0
    6.3141   -4.8319    0.9516 H   0  0  0  0  0  0
    7.5461   -4.0952   -1.7668 H   0  0  0  0  0  0
    7.7202   -5.6884   -0.8437 H   0  0  0  0  0  0
  1  2  1  0  0  0
  1 14  1  0  0  0
  1 15  1  0  0  0
  1 16  1  0  0  0
  2  3  1  0  0  0
  2 17  1  0  0  0
  2 18  1  0  0  0
  3  4  1  0  0  0
  3 19  1  0  0  0
  3 20  1  0  0  0
  4  5  1  0  0  0
  4 21  1  0  0  0
  4 22  1  0  0  0
  5  6  1  0  0  0
  5 23  1  0  0  0
  5 24  1  0  0  0
  6  7  1  0  0  0
  6 25  1  0  0  0
  6 26  1  0  0  0
  7  8  1  0  0  0
  7 27  1  0  0  0
  7 28  1  0  0  0
  8  9  1  0  0  0
  8 29  1  0  0  0
  8 30  1  0  0  0
  9 10  1  0  0  0
  9 31  1  0  0  0
  9 32  1  0  0  0
 10 11  1  0  0  0
 10 33  1  0  0  0
 10 34  1  0  0  0
 11 12  1  0  0  0
 11 35  1  0  0  0
 11 36  1  0  0  0
 12 13  2  0  0  0
 12 37  1  0  0  0
 13 38  1  0  0  0
 13 39  1  0  0  0
M  END
>  <i_m_Spin_multiplicity> (1)
1

>  <s_j_Task> (1)
Single Point

>  <s_j_QM_Method> (1)
DFT(b3lyp-d3)

>  <s_j_QM_Basis> (1)
cc-pvtz(-f)

>  <i_j_Number_of_canonical_orbitals> (1)
529

>  <i_j_Geometry_convergence_category> (1)
3

>  <r_j_Gas_Phase_Energy> (1)
-511.249363079156

>  <r_j_Final_Energy> (1)
-511.249363079156

>  <r_j_HOMO> (1)
-0.278166361139271

>  <r_j_LUMO> (1)
-0.0115181348130884

>  <r_j_Polarizability> (1)
161.817028012591

>  <r_j_QM_Dipole_(debye)> (1)
0.483799823827142

>  <r_j_QM_Dipole_X_(debye)> (1)
-0.341360711626596

>  <r_j_QM_Dipole_Y_(debye)> (1)
0.318457523755658

>  <r_j_QM_Dipole_Z_(debye)> (1)
0.12696432434496

>  <r_j_Lowest_Frequency_(cm-1)> (1)
44.7794793473735

>  <r_j_Highest_Frequency_(cm-1)> (1)
3167.47782613614

>  <r_j_2nd_Lowest_Frequency_(cm-1)> (1)
63.1458422277443

>  <i_j_Num_Negative_Frequencies> (1)
0

>  <r_j_Zero_Point_Energy_(kcal/mol)> (1)
228.744907984074

>  <r_j_Entropy_(cal/mol/K)_298.15K_1.00E+00atm> (1)
124.806104678858

>  <r_j_Enthalpy_(kcal/mol)_298.15K_1.00E+00atm> (1)
10.5686063679955

>  <r_j_Free_Energy_(kcal/mol)_298.15K_1.00E+00atm> (1)
-26.6423337420059

>  <r_j_Internal_Energy_(kcal/mol)_298.15K_1.00E+00atm> (1)
9.97612077916827

>  <r_j_Heat_Capacity_(cal/mol/K)_298.15K_1.00E+00atm> (1)
60.0152682487853

>  <r_j_ln(Q)_298.15K_1.00E+00atm> (1)
44.9670578397356

>  <r_j_Total_Internal_Energy_(au)_298.15K_1.00E+00atm> (1)
-510.86893690206

>  <r_j_Total_Enthalpy_(au)_298.15K_1.00E+00atm> (1)
-510.867992716168

>  <r_j_Total_Free_Energy_(au)_298.15K_1.00E+00atm> (1)
-510.927292124207

>  <r_lp_tautomer_probability> (1)
1

>  <r_epik_Ionization_Penalty> (1)
  0.0000

>  <r_epik_Ionization_Penalty_Charging> (1)
  0.0000

>  <r_epik_Ionization_Penalty_Neutral> (1)
  0.0000

>  <r_epik_State_Penalty> (1)
  0.0000

>  <r_epik_Charging_Adjusted_Penalty> (1)
0

>  <i_epik_Tot_Q> (1)
0

>  <i_epik_Tot_abs_Q> (1)
0

>  <s_lp_Force_Field> (1)
S-OPLS

>  <r_lp_Energy> (1)
3.388968

>  <b_lp_Chiralities_Consistent> (1)
1

$$$$
