17149_Cis-1,3-dimethylcyclopentane
                    3D
 Schrodinger Suite 2021-3.
 21 21  0  0  1  0            999 V2000
   -0.0447   -0.0812   -0.0168 C   0  0  0  0  0  0
    1.4800    0.0017    0.0186 C   0  0  0  0  0  0
    2.1100    0.6556   -1.2390 C   0  0  0  0  0  0
    3.4270    1.3317   -0.7600 C   0  0  0  0  0  0
    3.5237    1.0551    0.7634 C   0  0  0  0  0  0
    2.0585    0.8351    1.1738 C   0  0  0  0  0  0
    4.2581    2.1388    1.5503 C   0  0  0  0  0  0
   -0.4845    0.9204   -0.0960 H   0  0  0  0  0  0
   -0.4418   -0.5503    0.8903 H   0  0  0  0  0  0
   -0.3936   -0.6665   -0.8750 H   0  0  0  0  0  0
    1.8820   -1.0179    0.1144 H   0  0  0  0  0  0
    2.2739   -0.0769   -2.0360 H   0  0  0  0  0  0
    1.4215    1.4074   -1.6437 H   0  0  0  0  0  0
    4.3104    0.9663   -1.2937 H   0  0  0  0  0  0
    3.3843    2.4139   -0.9333 H   0  0  0  0  0  0
    4.0530    0.1016    0.9074 H   0  0  0  0  0  0
    1.5390    1.8043    1.2282 H   0  0  0  0  0  0
    1.9508    0.3523    2.1519 H   0  0  0  0  0  0
    3.7496    3.1049    1.4448 H   0  0  0  0  0  0
    5.2869    2.2640    1.1942 H   0  0  0  0  0  0
    4.3019    1.8986    2.6184 H   0  0  0  0  0  0
  1  2  1  0  0  0
  1  8  1  0  0  0
  1  9  1  0  0  0
  1 10  1  0  0  0
  2  6  1  0  0  0
  2  3  1  0  0  0
  2 11  1  0  0  0
  3  4  1  0  0  0
  3 12  1  0  0  0
  3 13  1  0  0  0
  4  5  1  0  0  0
  4 14  1  0  0  0
  4 15  1  0  0  0
  5  6  1  0  0  0
  5  7  1  0  0  0
  5 16  1  0  0  0
  6 17  1  0  0  0
  6 18  1  0  0  0
  7 19  1  0  0  0
  7 20  1  0  0  0
  7 21  1  0  0  0
M  END
>  <i_m_Spin_multiplicity> (1)
1

>  <s_j_Task> (1)
Single Point

>  <s_j_QM_Method> (1)
DFT(b3lyp-d3)

>  <s_j_QM_Basis> (1)
cc-pvtz(-f)

>  <i_j_Number_of_canonical_orbitals> (1)
285

>  <i_j_Geometry_convergence_category> (1)
0

>  <r_j_Gas_Phase_Energy> (1)
-275.296125112994

>  <r_j_Final_Energy> (1)
-275.296125112994

>  <r_j_HOMO> (1)
-0.301678184423921

>  <r_j_LUMO> (1)
0.0294734711224959

>  <r_j_Polarizability> (1)
82.1879290954973

>  <r_j_QM_Dipole_(debye)> (1)
0.188200692256843

>  <r_j_QM_Dipole_X_(debye)> (1)
0.076876240275269

>  <r_j_QM_Dipole_Y_(debye)> (1)
-0.169469815543715

>  <r_j_QM_Dipole_Z_(debye)> (1)
0.0280985029258421

>  <r_j_Lowest_Frequency_(cm-1)> (1)
124.299558259634

>  <r_j_Highest_Frequency_(cm-1)> (1)
3042.22940887255

>  <r_j_2nd_Lowest_Frequency_(cm-1)> (1)
160.977942568635

>  <i_j_Num_Negative_Frequencies> (1)
0

>  <r_j_Zero_Point_Energy_(kcal/mol)> (1)
122.948646910176

>  <r_j_Entropy_(cal/mol/K)_298.15K_1.00E+00atm> (1)
82.9057742227347

>  <r_j_Enthalpy_(kcal/mol)_298.15K_1.00E+00atm> (1)
5.25530511972228

>  <r_j_Free_Energy_(kcal/mol)_298.15K_1.00E+00atm> (1)
-19.4630514647861

>  <r_j_Internal_Energy_(kcal/mol)_298.15K_1.00E+00atm> (1)
4.66281953089501

>  <r_j_Heat_Capacity_(cal/mol/K)_298.15K_1.00E+00atm> (1)
29.207853095336

>  <r_j_ln(Q)_298.15K_1.00E+00atm> (1)
32.849831003164

>  <r_j_Total_Internal_Energy_(au)_298.15K_1.00E+00atm> (1)
-275.092763295297

>  <r_j_Total_Enthalpy_(au)_298.15K_1.00E+00atm> (1)
-275.091819109405

>  <r_j_Total_Free_Energy_(au)_298.15K_1.00E+00atm> (1)
-275.131210318249

>  <r_lp_tautomer_probability> (1)
1

>  <r_epik_Ionization_Penalty> (1)
  0.0000

>  <r_epik_Ionization_Penalty_Charging> (1)
  0.0000

>  <r_epik_Ionization_Penalty_Neutral> (1)
  0.0000

>  <r_epik_State_Penalty> (1)
  0.0000

>  <r_epik_Charging_Adjusted_Penalty> (1)
0

>  <i_epik_Tot_Q> (1)
0

>  <i_epik_Tot_abs_Q> (1)
0

>  <s_lp_Force_Field> (1)
S-OPLS

>  <r_lp_Energy> (1)
0.913344

>  <b_lp_Chiralities_Consistent> (1)
1

$$$$
