172146_2-Octadecenoic acid
                    3D
 Schrodinger Suite 2021-3.
 53 52  0  0  1  0            999 V2000
   -0.2054    8.2155   -1.2213 C   0  0  0  0  0  0
    0.2031    6.7417   -1.1413 C   0  0  0  0  0  0
   -0.5897    5.9509   -0.0933 C   0  0  0  0  0  0
   -0.1744    4.4780   -0.0086 C   0  0  0  0  0  0
   -0.9555    3.6784    1.0435 C   0  0  0  0  0  0
   -0.4767    2.2263    1.2036 C   0  0  0  0  0  0
   -0.7718    1.3265   -0.0061 C   0  0  0  0  0  0
   -0.2298   -0.1062    0.1293 C   0  0  0  0  0  0
    1.3021   -0.1943    0.1028 C   0  0  0  0  0  0
    1.8448   -1.6275    0.1372 C   0  0  0  0  0  0
    3.3764   -1.6826    0.0981 C   0  0  0  0  0  0
    3.9561   -3.1011    0.1224 C   0  0  0  0  0  0
    5.4883   -3.1243    0.0707 C   0  0  0  0  0  0
    6.0934   -4.5318    0.0959 C   0  0  0  0  0  0
    7.6331   -4.5355    0.0410 C   0  0  0  0  0  0
    8.2186   -5.9214    0.0319 C   0  0  0  0  0  0
    8.9838   -6.4561    0.9872 C   0  0  0  0  0  0
    9.5359   -7.8976    0.9434 C   0  0  0  0  0  0
   10.2257   -8.2122    1.9489 O   0  0  0  0  0  0
    9.2340   -8.5748   -0.0733 O   0  5  0  0  0  0
    0.3762    8.7548   -1.9766 H   0  0  0  0  0  0
   -0.0522    8.7194   -0.2599 H   0  0  0  0  0  0
   -1.2657    8.3173   -1.4809 H   0  0  0  0  0  0
    0.0722    6.2696   -2.1246 H   0  0  0  0  0  0
    1.2749    6.6693   -0.9118 H   0  0  0  0  0  0
   -0.4624    6.4241    0.8912 H   0  0  0  0  0  0
   -1.6631    6.0164   -0.3236 H   0  0  0  0  0  0
   -0.2972    4.0168   -0.9970 H   0  0  0  0  0  0
    0.8992    4.4179    0.2213 H   0  0  0  0  0  0
   -0.8678    4.1920    2.0109 H   0  0  0  0  0  0
   -2.0257    3.6884    0.7900 H   0  0  0  0  0  0
    0.6015    2.2354    1.4084 H   0  0  0  0  0  0
   -0.9495    1.7833    2.0908 H   0  0  0  0  0  0
   -1.8595    1.2946   -0.1596 H   0  0  0  0  0  0
   -0.3497    1.7731   -0.9161 H   0  0  0  0  0  0
   -0.6075   -0.5569    1.0584 H   0  0  0  0  0  0
   -0.6319   -0.7181   -0.6896 H   0  0  0  0  0  0
    1.6723    0.3091   -0.8026 H   0  0  0  0  0  0
    1.7241    0.3626    0.9497 H   0  0  0  0  0  0
    1.4825   -2.1352    1.0426 H   0  0  0  0  0  0
    1.4363   -2.1942   -0.7119 H   0  0  0  0  0  0
    3.7313   -1.1635   -0.8044 H   0  0  0  0  0  0
    3.7793   -1.1134    0.9486 H   0  0  0  0  0  0
    3.6132   -3.6209    1.0285 H   0  0  0  0  0  0
    3.5537   -3.6746   -0.7252 H   0  0  0  0  0  0
    5.8254   -2.6000   -0.8362 H   0  0  0  0  0  0
    5.8857   -2.5442    0.9168 H   0  0  0  0  0  0
    5.7713   -5.0593    1.0036 H   0  0  0  0  0  0
    5.7001   -5.1156   -0.7487 H   0  0  0  0  0  0
    7.9408   -3.9789   -0.8613 H   0  0  0  0  0  0
    8.0221   -3.9690    0.8992 H   0  0  0  0  0  0
    7.9875   -6.5659   -0.8182 H   0  0  0  0  0  0
    9.2534   -5.8697    1.8704 H   0  0  0  0  0  0
  1  2  1  0  0  0
  1 21  1  0  0  0
  1 22  1  0  0  0
  1 23  1  0  0  0
  2  3  1  0  0  0
  2 24  1  0  0  0
  2 25  1  0  0  0
  3  4  1  0  0  0
  3 26  1  0  0  0
  3 27  1  0  0  0
  4  5  1  0  0  0
  4 28  1  0  0  0
  4 29  1  0  0  0
  5  6  1  0  0  0
  5 30  1  0  0  0
  5 31  1  0  0  0
  6  7  1  0  0  0
  6 32  1  0  0  0
  6 33  1  0  0  0
  7  8  1  0  0  0
  7 34  1  0  0  0
  7 35  1  0  0  0
  8  9  1  0  0  0
  8 36  1  0  0  0
  8 37  1  0  0  0
  9 10  1  0  0  0
  9 38  1  0  0  0
  9 39  1  0  0  0
 10 11  1  0  0  0
 10 40  1  0  0  0
 10 41  1  0  0  0
 11 12  1  0  0  0
 11 42  1  0  0  0
 11 43  1  0  0  0
 12 13  1  0  0  0
 12 44  1  0  0  0
 12 45  1  0  0  0
 13 14  1  0  0  0
 13 46  1  0  0  0
 13 47  1  0  0  0
 14 15  1  0  0  0
 14 48  1  0  0  0
 14 49  1  0  0  0
 15 16  1  0  0  0
 15 50  1  0  0  0
 15 51  1  0  0  0
 16 17  2  0  0  0
 16 52  1  0  0  0
 17 18  1  0  0  0
 17 53  1  0  0  0
 18 19  2  0  0  0
 18 20  1  0  0  0
M  END
>  <i_m_Spin_multiplicity> (1)
1

>  <s_j_Task> (1)
Single Point

>  <s_j_QM_Method> (1)
DFT(b3lyp-d3)

>  <s_j_QM_Basis> (1)
6-31g**

>  <i_j_Number_of_canonical_orbitals> (1)
465

>  <r_j_Gas_Phase_Energy> (1)
-856.384619818748

>  <r_j_Final_Energy> (1)
-856.384619818748

>  <r_j_HOMO> (1)
-0.0093874906171032

>  <r_j_LUMO> (1)
0.126728463647602

>  <r_j_Polarizability> (1)
207.03848724346

>  <r_j_QM_Dipole_(debye)> (1)
42.697520977566

>  <r_j_QM_Dipole_X_(debye)> (1)
-27.519940861811

>  <r_j_QM_Dipole_Y_(debye)> (1)
32.5067942516799

>  <r_j_QM_Dipole_Z_(debye)> (1)
-3.00657281153654

>  <r_j_Lowest_Frequency_(cm-1)> (1)
-10.6952579085176

>  <r_j_Highest_Frequency_(cm-1)> (1)
3133.39260427601

>  <r_j_2nd_Lowest_Frequency_(cm-1)> (1)
13.0778765061076

>  <i_j_Num_Negative_Frequencies> (1)
1

>  <r_j_Zero_Point_Energy_(kcal/mol)> (1)
303.425488743004

>  <r_j_Entropy_(cal/mol/K)_298.15K_1.00E+00atm> (1)
159.6928849832

>  <r_j_Enthalpy_(kcal/mol)_298.15K_1.00E+00atm> (1)
15.0381584583927

>  <r_j_Free_Energy_(kcal/mol)_298.15K_1.00E+00atm> (1)
-32.5742751993484

>  <r_j_Internal_Energy_(kcal/mol)_298.15K_1.00E+00atm> (1)
14.4456728695654

>  <r_j_Heat_Capacity_(cal/mol/K)_298.15K_1.00E+00atm> (1)
85.8988520829954

>  <r_j_ln(Q)_298.15K_1.00E+00atm> (1)
54.9790168969742

>  <r_j_Total_Internal_Energy_(au)_298.15K_1.00E+00atm> (1)
-855.878059875337

>  <r_j_Total_Enthalpy_(au)_298.15K_1.00E+00atm> (1)
-855.877115689445

>  <r_j_Total_Free_Energy_(au)_298.15K_1.00E+00atm> (1)
-855.952990932663

>  <i_j_Geometry_convergence_category> (1)
3

>  <r_epik_Ionization_Penalty> (1)
  0.0030

>  <r_epik_Ionization_Penalty_Charging> (1)
  0.0030

>  <r_epik_Ionization_Penalty_Neutral> (1)
  0.0000

>  <r_epik_State_Penalty> (1)
  0.0021

>  <r_epik_Charging_Adjusted_Penalty> (1)
0.00507066606519717

>  <i_epik_Tot_Q> (1)
-1

>  <i_epik_Tot_abs_Q> (1)
1

>  <s_lp_Force_Field> (1)
S-OPLS

>  <r_lp_Energy> (1)
11.729797

>  <b_lp_Chiralities_Consistent> (1)
1

$$$$
