17656_2-methyl-2-hexene
                    3D
 Schrodinger Suite 2021-3.
 21 20  0  0  1  0            999 V2000
   -2.0778    1.5028    0.0000 C   0  0  0  0  0  0
   -0.5487    1.4393    0.0000 C   0  0  0  0  0  0
   -0.0069    0.0038    0.0000 C   0  0  0  0  0  0
    1.5013   -0.0636    0.0000 C   0  0  0  0  0  0
    2.2229   -1.1925    0.0000 C   0  0  0  0  0  0
    3.7420   -1.1435    0.0000 C   0  0  0  0  0  0
    1.5406   -2.5455    0.0000 C   0  0  0  0  0  0
   -2.4379    2.5367    0.0000 H   0  0  0  0  0  0
   -2.4929    1.0046    0.8838 H   0  0  0  0  0  0
   -2.4929    1.0047   -0.8840 H   0  0  0  0  0  0
   -0.1560    1.9705   -0.8775 H   0  0  0  0  0  0
   -0.1561    1.9705    0.8774 H   0  0  0  0  0  0
   -0.4092   -0.5331    0.8738 H   0  0  0  0  0  0
   -0.4093   -0.5332   -0.8736 H   0  0  0  0  0  0
    2.0278    0.8920    0.0001 H   0  0  0  0  0  0
    4.1828   -2.1443    0.0000 H   0  0  0  0  0  0
    4.1267   -0.6170    0.8811 H   0  0  0  0  0  0
    4.1267   -0.6170   -0.8811 H   0  0  0  0  0  0
    2.2593   -3.3691   -0.0003 H   0  0  0  0  0  0
    0.8940   -2.6681   -0.8785 H   0  0  0  0  0  0
    0.8943   -2.6683    0.8787 H   0  0  0  0  0  0
  1  2  1  0  0  0
  1  8  1  0  0  0
  1  9  1  0  0  0
  1 10  1  0  0  0
  2  3  1  0  0  0
  2 11  1  0  0  0
  2 12  1  0  0  0
  3  4  1  0  0  0
  3 13  1  0  0  0
  3 14  1  0  0  0
  4  5  2  0  0  0
  4 15  1  0  0  0
  5  6  1  0  0  0
  5  7  1  0  0  0
  6 16  1  0  0  0
  6 17  1  0  0  0
  6 18  1  0  0  0
  7 19  1  0  0  0
  7 20  1  0  0  0
  7 21  1  0  0  0
M  END
>  <i_m_Spin_multiplicity> (1)
1

>  <s_j_Task> (1)
Single Point

>  <s_j_QM_Method> (1)
DFT(b3lyp-d3)

>  <s_j_QM_Basis> (1)
cc-pvtz(-f)

>  <i_j_Number_of_canonical_orbitals> (1)
284

>  <i_j_Geometry_convergence_category> (1)
0

>  <r_j_Gas_Phase_Energy> (1)
-275.273605746666

>  <r_j_Final_Energy> (1)
-275.273605746666

>  <r_j_HOMO> (1)
-0.232563157949025

>  <r_j_LUMO> (1)
0.00643120089339305

>  <r_j_Polarizability> (1)
86.8474977086715

>  <r_j_QM_Dipole_(debye)> (1)
0.2019332947041

>  <r_j_QM_Dipole_X_(debye)> (1)
0.0337008933780487

>  <r_j_QM_Dipole_Y_(debye)> (1)
-0.199101219892483

>  <r_j_QM_Dipole_Z_(debye)> (1)
9.76365674799203e-05

>  <r_j_Lowest_Frequency_(cm-1)> (1)
-109.474207056771

>  <r_j_Highest_Frequency_(cm-1)> (1)
3071.61852016402

>  <r_j_2nd_Lowest_Frequency_(cm-1)> (1)
90.8816427798132

>  <i_j_Num_Negative_Frequencies> (1)
1

>  <r_j_Zero_Point_Energy_(kcal/mol)> (1)
120.218959489168

>  <r_j_Entropy_(cal/mol/K)_298.15K_1.00E+00atm> (1)
88.9416338904788

>  <r_j_Enthalpy_(kcal/mol)_298.15K_1.00E+00atm> (1)
5.94819468774605

>  <r_j_Free_Energy_(kcal/mol)_298.15K_1.00E+00atm> (1)
-20.5697534567002

>  <r_j_Internal_Energy_(kcal/mol)_298.15K_1.00E+00atm> (1)
5.35570909891878

>  <r_j_Heat_Capacity_(cal/mol/K)_298.15K_1.00E+00atm> (1)
31.1741671093432

>  <r_j_ln(Q)_298.15K_1.00E+00atm> (1)
34.7177278985208

>  <r_j_Total_Internal_Energy_(au)_298.15K_1.00E+00atm> (1)
-275.073489772977

>  <r_j_Total_Enthalpy_(au)_298.15K_1.00E+00atm> (1)
-275.072545587084

>  <r_j_Total_Free_Energy_(au)_298.15K_1.00E+00atm> (1)
-275.114804627644

>  <r_lp_tautomer_probability> (1)
1

>  <r_epik_Ionization_Penalty> (1)
  0.0000

>  <r_epik_Ionization_Penalty_Charging> (1)
  0.0000

>  <r_epik_Ionization_Penalty_Neutral> (1)
  0.0000

>  <r_epik_State_Penalty> (1)
  0.0000

>  <r_epik_Charging_Adjusted_Penalty> (1)
0

>  <i_epik_Tot_Q> (1)
0

>  <i_epik_Tot_abs_Q> (1)
0

>  <s_lp_Force_Field> (1)
S-OPLS

>  <r_lp_Energy> (1)
1.68803

>  <b_lp_Chiralities_Consistent> (1)
1

$$$$
