176691_Trimethyloctanes
                    3D
 Schrodinger Suite 2021-3.
 35 34  0  0  1  0            999 V2000
   -2.6706    3.0774   -0.0005 C   0  0  0  0  0  0
   -2.1574    1.6343   -0.0005 C   0  0  0  0  0  0
   -0.6270    1.5403    0.0002 C   0  0  0  0  0  0
   -0.1061    0.0989    0.0002 C   0  0  0  0  0  0
    1.4235    0.0002    0.0006 C   0  0  0  0  0  0
    1.9372   -1.4452    0.0005 C   0  0  0  0  0  0
    3.4693   -1.5259    0.0003 C   0  0  0  0  0  0
    4.1007   -2.9416    0.0000 C   0  0  0  0  0  0
    3.6846   -3.7275    1.2576 C   0  0  0  0  0  0
    5.6334   -2.7796   -0.0006 C   0  0  0  0  0  0
    3.6837   -3.7273   -1.2574 C   0  0  0  0  0  0
   -3.7649    3.1163   -0.0011 H   0  0  0  0  0  0
   -2.3168    3.6214   -0.8839 H   0  0  0  0  0  0
   -2.3178    3.6210    0.8836 H   0  0  0  0  0  0
   -2.5520    1.1032    0.8765 H   0  0  0  0  0  0
   -2.5511    1.1036   -0.8782 H   0  0  0  0  0  0
   -0.2304    2.0714   -0.8772 H   0  0  0  0  0  0
   -0.2313    2.0710    0.8783 H   0  0  0  0  0  0
   -0.5040   -0.4308    0.8777 H   0  0  0  0  0  0
   -0.5035   -0.4305   -0.8777 H   0  0  0  0  0  0
    1.8225    0.5290   -0.8769 H   0  0  0  0  0  0
    1.8221    0.5288    0.8785 H   0  0  0  0  0  0
    1.5323   -1.9650    0.8782 H   0  0  0  0  0  0
    1.5321   -1.9649   -0.8773 H   0  0  0  0  0  0
    3.8478   -0.9816   -0.8771 H   0  0  0  0  0  0
    3.8481   -0.9818    0.8776 H   0  0  0  0  0  0
    4.1947   -4.6967    1.2945 H   0  0  0  0  0  0
    2.6078   -3.9225    1.2774 H   0  0  0  0  0  0
    3.9445   -3.1775    2.1694 H   0  0  0  0  0  0
    5.9729   -2.2300    0.8848 H   0  0  0  0  0  0
    5.9722   -2.2298   -0.8862 H   0  0  0  0  0  0
    6.1326   -3.7553   -0.0010 H   0  0  0  0  0  0
    4.1937   -4.6965   -1.2949 H   0  0  0  0  0  0
    3.9428   -3.1773   -2.1694 H   0  0  0  0  0  0
    2.6069   -3.9223   -1.2765 H   0  0  0  0  0  0
  1  2  1  0  0  0
  1 12  1  0  0  0
  1 13  1  0  0  0
  1 14  1  0  0  0
  2  3  1  0  0  0
  2 15  1  0  0  0
  2 16  1  0  0  0
  3  4  1  0  0  0
  3 17  1  0  0  0
  3 18  1  0  0  0
  4  5  1  0  0  0
  4 19  1  0  0  0
  4 20  1  0  0  0
  5  6  1  0  0  0
  5 21  1  0  0  0
  5 22  1  0  0  0
  6  7  1  0  0  0
  6 23  1  0  0  0
  6 24  1  0  0  0
  7  8  1  0  0  0
  7 25  1  0  0  0
  7 26  1  0  0  0
  8  9  1  0  0  0
  8 10  1  0  0  0
  8 11  1  0  0  0
  9 27  1  0  0  0
  9 28  1  0  0  0
  9 29  1  0  0  0
 10 30  1  0  0  0
 10 31  1  0  0  0
 10 32  1  0  0  0
 11 33  1  0  0  0
 11 34  1  0  0  0
 11 35  1  0  0  0
M  END
>  <i_m_Spin_multiplicity> (1)
1

>  <s_j_Task> (1)
Single Point

>  <s_j_QM_Method> (1)
DFT(b3lyp-d3)

>  <s_j_QM_Basis> (1)
cc-pvtz(-f)

>  <i_j_Number_of_canonical_orbitals> (1)
465

>  <i_j_Geometry_convergence_category> (1)
3

>  <r_j_Gas_Phase_Energy> (1)
-433.831006870238

>  <r_j_Final_Energy> (1)
-433.831006870238

>  <r_j_HOMO> (1)
-0.29946816457095

>  <r_j_LUMO> (1)
0.0118957534052655

>  <r_j_Polarizability> (1)
136.726855026259

>  <r_j_QM_Dipole_(debye)> (1)
0.0749398124244376

>  <r_j_QM_Dipole_X_(debye)> (1)
-0.0685925042841981

>  <r_j_QM_Dipole_Y_(debye)> (1)
-0.0301833878086053

>  <r_j_QM_Dipole_Z_(debye)> (1)
8.33224308541491e-05

>  <r_j_Lowest_Frequency_(cm-1)> (1)
58.5387686690167

>  <r_j_Highest_Frequency_(cm-1)> (1)
3052.15722258505

>  <r_j_2nd_Lowest_Frequency_(cm-1)> (1)
76.0010993656659

>  <i_j_Num_Negative_Frequencies> (1)
0

>  <r_j_Zero_Point_Energy_(kcal/mol)> (1)
207.173125115491

>  <r_j_Entropy_(cal/mol/K)_298.15K_1.00E+00atm> (1)
113.146500784455

>  <r_j_Enthalpy_(kcal/mol)_298.15K_1.00E+00atm> (1)
9.27509516615644

>  <r_j_Free_Energy_(kcal/mol)_298.15K_1.00E+00atm> (1)
-24.4595340427287

>  <r_j_Internal_Energy_(kcal/mol)_298.15K_1.00E+00atm> (1)
8.68260957732917

>  <r_j_Heat_Capacity_(cal/mol/K)_298.15K_1.00E+00atm> (1)
53.6975629858588

>  <r_j_ln(Q)_298.15K_1.00E+00atm> (1)
41.2829181063158

>  <r_j_Total_Internal_Energy_(au)_298.15K_1.00E+00atm> (1)
-433.487018858881

>  <r_j_Total_Enthalpy_(au)_298.15K_1.00E+00atm> (1)
-433.486074672989

>  <r_j_Total_Free_Energy_(au)_298.15K_1.00E+00atm> (1)
-433.539834226942

>  <r_lp_tautomer_probability> (1)
1

>  <r_epik_Ionization_Penalty> (1)
  0.0000

>  <r_epik_Ionization_Penalty_Charging> (1)
  0.0000

>  <r_epik_Ionization_Penalty_Neutral> (1)
  0.0000

>  <r_epik_State_Penalty> (1)
  0.0000

>  <r_epik_Charging_Adjusted_Penalty> (1)
0

>  <i_epik_Tot_Q> (1)
0

>  <i_epik_Tot_abs_Q> (1)
0

>  <s_lp_Force_Field> (1)
S-OPLS

>  <r_lp_Energy> (1)
6.624048

>  <b_lp_Chiralities_Consistent> (1)
1

$$$$
