176692_Trimethyldecane
                    3D
 Schrodinger Suite 2021-3.
 41 40  0  0  1  0            999 V2000
   -4.3277    2.9607   -0.0185 C   0  0  0  0  0  0
   -2.7964    2.9385   -0.0153 C   0  0  0  0  0  0
   -2.2153    1.5197    0.0001 C   0  0  0  0  0  0
   -0.6830    1.4904    0.0026 C   0  0  0  0  0  0
   -0.0961    0.0745    0.0143 C   0  0  0  0  0  0
    1.4366    0.0541    0.0137 C   0  0  0  0  0  0
    2.0308   -1.3587    0.0179 C   0  0  0  0  0  0
    3.5648   -1.3712    0.0127 C   0  0  0  0  0  0
    4.1414   -2.7927    0.0065 C   0  0  0  0  0  0
    5.6857   -2.9277   -0.0045 C   0  0  0  0  0  0
    6.2846   -2.2659   -1.2597 C   0  0  0  0  0  0
    6.0322   -4.4290   -0.0212 C   0  0  0  0  0  0
    6.3010   -2.2890    1.2546 C   0  0  0  0  0  0
   -4.7164    3.9844   -0.0299 H   0  0  0  0  0  0
   -4.7309    2.4605    0.8698 H   0  0  0  0  0  0
   -4.7275    2.4421   -0.8977 H   0  0  0  0  0  0
   -2.4185    3.4733   -0.8976 H   0  0  0  0  0  0
   -2.4218    3.4912    0.8571 H   0  0  0  0  0  0
   -2.5919    0.9827    0.8828 H   0  0  0  0  0  0
   -2.5892    0.9650   -0.8727 H   0  0  0  0  0  0
   -0.3086    2.0305   -0.8791 H   0  0  0  0  0  0
   -0.3107    2.0447    0.8762 H   0  0  0  0  0  0
   -0.4673   -0.4668    0.8965 H   0  0  0  0  0  0
   -0.4676   -0.4806   -0.8591 H   0  0  0  0  0  0
    1.8060    0.6001   -0.8663 H   0  0  0  0  0  0
    1.8075    0.6068    0.8890 H   0  0  0  0  0  0
    1.6645   -1.9055    0.8987 H   0  0  0  0  0  0
    1.6592   -1.9118   -0.8568 H   0  0  0  0  0  0
    3.9202   -0.8164   -0.8652 H   0  0  0  0  0  0
    3.9269   -0.8203    0.8904 H   0  0  0  0  0  0
    3.7564   -3.3304    0.8852 H   0  0  0  0  0  0
    3.7449   -3.3263   -0.8696 H   0  0  0  0  0  0
    7.3671   -2.4303   -1.3043 H   0  0  0  0  0  0
    6.1162   -1.1844   -1.2686 H   0  0  0  0  0  0
    5.8447   -2.6832   -2.1729 H   0  0  0  0  0  0
    5.6165   -4.9208   -0.9083 H   0  0  0  0  0  0
    5.6297   -4.9371    0.8628 H   0  0  0  0  0  0
    7.1174   -4.5829   -0.0308 H   0  0  0  0  0  0
    7.3840   -2.4542    1.2822 H   0  0  0  0  0  0
    5.8729   -2.7230    2.1657 H   0  0  0  0  0  0
    6.1330   -1.2079    1.2854 H   0  0  0  0  0  0
  1  2  1  0  0  0
  1 14  1  0  0  0
  1 15  1  0  0  0
  1 16  1  0  0  0
  2  3  1  0  0  0
  2 17  1  0  0  0
  2 18  1  0  0  0
  3  4  1  0  0  0
  3 19  1  0  0  0
  3 20  1  0  0  0
  4  5  1  0  0  0
  4 21  1  0  0  0
  4 22  1  0  0  0
  5  6  1  0  0  0
  5 23  1  0  0  0
  5 24  1  0  0  0
  6  7  1  0  0  0
  6 25  1  0  0  0
  6 26  1  0  0  0
  7  8  1  0  0  0
  7 27  1  0  0  0
  7 28  1  0  0  0
  8  9  1  0  0  0
  8 29  1  0  0  0
  8 30  1  0  0  0
  9 10  1  0  0  0
  9 31  1  0  0  0
  9 32  1  0  0  0
 10 11  1  0  0  0
 10 12  1  0  0  0
 10 13  1  0  0  0
 11 33  1  0  0  0
 11 34  1  0  0  0
 11 35  1  0  0  0
 12 36  1  0  0  0
 12 37  1  0  0  0
 12 38  1  0  0  0
 13 39  1  0  0  0
 13 40  1  0  0  0
 13 41  1  0  0  0
M  END
>  <i_m_Spin_multiplicity> (1)
1

>  <s_j_Task> (1)
Single Point

>  <s_j_QM_Method> (1)
DFT(b3lyp-d3)

>  <s_j_QM_Basis> (1)
cc-pvtz(-f)

>  <i_j_Number_of_canonical_orbitals> (1)
547

>  <i_j_Geometry_convergence_category> (1)
0

>  <r_j_Gas_Phase_Energy> (1)
-512.489987023025

>  <r_j_Final_Energy> (1)
-512.489987023025

>  <r_j_HOMO> (1)
-0.294776227586519

>  <r_j_LUMO> (1)
0.0119152430738812

>  <r_j_Polarizability> (1)
162.111342925953

>  <r_j_QM_Dipole_(debye)> (1)
0.0746039087732254

>  <r_j_QM_Dipole_X_(debye)> (1)
0.00431457337413704

>  <r_j_QM_Dipole_Y_(debye)> (1)
0.0744789699514458

>  <r_j_QM_Dipole_Z_(debye)> (1)
0.000103420571201969

>  <r_j_Lowest_Frequency_(cm-1)> (1)
45.3884539063595

>  <r_j_Highest_Frequency_(cm-1)> (1)
3051.70886104218

>  <r_j_2nd_Lowest_Frequency_(cm-1)> (1)
55.6869035053746

>  <i_j_Num_Negative_Frequencies> (1)
0

>  <r_j_Zero_Point_Energy_(kcal/mol)> (1)
242.891936233467

>  <r_j_Entropy_(cal/mol/K)_298.15K_1.00E+00atm> (1)
124.607643664103

>  <r_j_Enthalpy_(kcal/mol)_298.15K_1.00E+00atm> (1)
10.8116325153552

>  <r_j_Free_Energy_(kcal/mol)_298.15K_1.00E+00atm> (1)
-26.340136443097

>  <r_j_Internal_Energy_(kcal/mol)_298.15K_1.00E+00atm> (1)
10.219146926528

>  <r_j_Heat_Capacity_(cal/mol/K)_298.15K_1.00E+00atm> (1)
63.1825086725992

>  <r_j_ln(Q)_298.15K_1.00E+00atm> (1)
44.4570077986754

>  <r_j_Total_Internal_Energy_(au)_298.15K_1.00E+00atm> (1)
-512.086628834407

>  <r_j_Total_Enthalpy_(au)_298.15K_1.00E+00atm> (1)
-512.085684648515

>  <r_j_Total_Free_Energy_(au)_298.15K_1.00E+00atm> (1)
-512.144889761321

>  <r_lp_tautomer_probability> (1)
1

>  <r_epik_Ionization_Penalty> (1)
  0.0000

>  <r_epik_Ionization_Penalty_Charging> (1)
  0.0000

>  <r_epik_Ionization_Penalty_Neutral> (1)
  0.0000

>  <r_epik_State_Penalty> (1)
  0.0000

>  <r_epik_Charging_Adjusted_Penalty> (1)
0

>  <i_epik_Tot_Q> (1)
0

>  <i_epik_Tot_abs_Q> (1)
0

>  <s_lp_Force_Field> (1)
S-OPLS

>  <r_lp_Energy> (1)
7.681974

>  <b_lp_Chiralities_Consistent> (1)
1

$$$$
