17697_Pentadecanal
                    3D
 Schrodinger Suite 2021-3.
 46 45  0  0  1  0            999 V2000
   -6.2698    4.9213    0.6563 C   0  0  0  0  0  0
   -4.7573    4.7783    0.4626 C   0  0  0  0  0  0
   -4.2970    3.3186    0.3677 C   0  0  0  0  0  0
   -2.7821    3.1716    0.1871 C   0  0  0  0  0  0
   -2.3088    1.7159    0.1004 C   0  0  0  0  0  0
   -0.7881    1.5854   -0.0425 C   0  0  0  0  0  0
   -0.2942    0.1352   -0.1054 C   0  0  0  0  0  0
    1.2346    0.0301   -0.1894 C   0  0  0  0  0  0
    1.7813   -1.4048   -0.1488 C   0  0  0  0  0  0
    1.4459   -2.2558   -1.3811 C   0  0  0  0  0  0
    2.0583   -3.6614   -1.3051 C   0  0  0  0  0  0
    1.7490   -4.5641   -2.5086 C   0  0  0  0  0  0
    2.3890   -4.0892   -3.8217 C   0  0  0  0  0  0
    2.1881   -5.0703   -4.9793 C   0  0  0  0  0  0
    0.7684   -5.1510   -5.4932 C   0  0  0  0  0  0
   -0.1480   -4.4573   -5.1078 O   0  0  0  0  0  0
   -6.5704    5.9723    0.7202 H   0  0  0  0  0  0
   -6.5979    4.4240    1.5764 H   0  0  0  0  0  0
   -6.8190    4.4673   -0.1767 H   0  0  0  0  0  0
   -4.4501    5.3136   -0.4462 H   0  0  0  0  0  0
   -4.2324    5.2682    1.2942 H   0  0  0  0  0  0
   -4.6094    2.7803    1.2742 H   0  0  0  0  0  0
   -4.8151    2.8275   -0.4686 H   0  0  0  0  0  0
   -2.4701    3.7096   -0.7196 H   0  0  0  0  0  0
   -2.2693    3.6685    1.0234 H   0  0  0  0  0  0
   -2.6362    1.1735    0.9990 H   0  0  0  0  0  0
   -2.8015    1.2204   -0.7482 H   0  0  0  0  0  0
   -0.4598    2.1209   -0.9449 H   0  0  0  0  0  0
   -0.3032    2.0949    0.8028 H   0  0  0  0  0  0
   -0.6431   -0.4060    0.7862 H   0  0  0  0  0  0
   -0.7558   -0.3671   -0.9655 H   0  0  0  0  0  0
    1.5836    0.5270   -1.1062 H   0  0  0  0  0  0
    1.6694    0.5971    0.6451 H   0  0  0  0  0  0
    2.8739   -1.3651   -0.0398 H   0  0  0  0  0  0
    1.4064   -1.9088    0.7538 H   0  0  0  0  0  0
    0.3581   -2.3469   -1.4970 H   0  0  0  0  0  0
    1.8049   -1.7350   -2.2787 H   0  0  0  0  0  0
    3.1487   -3.5750   -1.1881 H   0  0  0  0  0  0
    1.6956   -4.1523   -0.3920 H   0  0  0  0  0  0
    2.1074   -5.5798   -2.2899 H   0  0  0  0  0  0
    0.6643   -4.6371   -2.6475 H   0  0  0  0  0  0
    1.9687   -3.1207   -4.1123 H   0  0  0  0  0  0
    3.4649   -3.9376   -3.6680 H   0  0  0  0  0  0
    2.8132   -4.8044   -5.8460 H   0  0  0  0  0  0
    2.5022   -6.0899   -4.7085 H   0  0  0  0  0  0
    0.6060   -5.9083   -6.2953 H   0  0  0  0  0  0
  1  2  1  0  0  0
  1 17  1  0  0  0
  1 18  1  0  0  0
  1 19  1  0  0  0
  2  3  1  0  0  0
  2 20  1  0  0  0
  2 21  1  0  0  0
  3  4  1  0  0  0
  3 22  1  0  0  0
  3 23  1  0  0  0
  4  5  1  0  0  0
  4 24  1  0  0  0
  4 25  1  0  0  0
  5  6  1  0  0  0
  5 26  1  0  0  0
  5 27  1  0  0  0
  6  7  1  0  0  0
  6 28  1  0  0  0
  6 29  1  0  0  0
  7  8  1  0  0  0
  7 30  1  0  0  0
  7 31  1  0  0  0
  8  9  1  0  0  0
  8 32  1  0  0  0
  8 33  1  0  0  0
  9 10  1  0  0  0
  9 34  1  0  0  0
  9 35  1  0  0  0
 10 11  1  0  0  0
 10 36  1  0  0  0
 10 37  1  0  0  0
 11 12  1  0  0  0
 11 38  1  0  0  0
 11 39  1  0  0  0
 12 13  1  0  0  0
 12 40  1  0  0  0
 12 41  1  0  0  0
 13 14  1  0  0  0
 13 42  1  0  0  0
 13 43  1  0  0  0
 14 15  1  0  0  0
 14 44  1  0  0  0
 14 45  1  0  0  0
 15 16  2  0  0  0
 15 46  1  0  0  0
M  END
>  <i_m_Spin_multiplicity> (1)
1

>  <s_j_Task> (1)
Single Point

>  <s_j_QM_Method> (1)
DFT(b3lyp-d3)

>  <s_j_QM_Basis> (1)
cc-pvtz(-f)

>  <i_j_Number_of_canonical_orbitals> (1)
634

>  <i_j_Geometry_convergence_category> (1)
0

>  <r_j_Gas_Phase_Energy> (1)
-665.173498333925

>  <r_j_Final_Energy> (1)
-665.173498333925

>  <r_j_HOMO> (1)
-0.261246632990882

>  <r_j_LUMO> (1)
-0.0328592973828257

>  <r_j_Polarizability> (1)
186.728416866115

>  <r_j_QM_Dipole_(debye)> (1)
2.50087626186705

>  <r_j_QM_Dipole_X_(debye)> (1)
2.18279830366973

>  <r_j_QM_Dipole_Y_(debye)> (1)
-1.12833981505434

>  <r_j_QM_Dipole_Z_(debye)> (1)
-0.465427657568599

>  <r_j_Lowest_Frequency_(cm-1)> (1)
32.6389011515757

>  <r_j_Highest_Frequency_(cm-1)> (1)
3045.70518868076

>  <r_j_2nd_Lowest_Frequency_(cm-1)> (1)
50.1474842620064

>  <i_j_Num_Negative_Frequencies> (1)
0

>  <r_j_Zero_Point_Energy_(kcal/mol)> (1)
267.476379771771

>  <r_j_Entropy_(cal/mol/K)_298.15K_1.00E+00atm> (1)
139.829871182332

>  <r_j_Enthalpy_(kcal/mol)_298.15K_1.00E+00atm> (1)
12.5657071763466

>  <r_j_Free_Energy_(kcal/mol)_298.15K_1.00E+00atm> (1)
-29.1245689166658

>  <r_j_Internal_Energy_(kcal/mol)_298.15K_1.00E+00atm> (1)
11.9732215875193

>  <r_j_Heat_Capacity_(cal/mol/K)_298.15K_1.00E+00atm> (1)
72.3087472131921

>  <r_j_ln(Q)_298.15K_1.00E+00atm> (1)
49.1565861953081

>  <r_j_Total_Internal_Energy_(au)_298.15K_1.00E+00atm> (1)
-664.728167044568

>  <r_j_Total_Enthalpy_(au)_298.15K_1.00E+00atm> (1)
-664.727222858676

>  <r_j_Total_Free_Energy_(au)_298.15K_1.00E+00atm> (1)
-664.793660543023

>  <r_lp_tautomer_probability> (1)
1

>  <r_epik_Ionization_Penalty> (1)
  0.0000

>  <r_epik_Ionization_Penalty_Charging> (1)
  0.0000

>  <r_epik_Ionization_Penalty_Neutral> (1)
  0.0000

>  <r_epik_State_Penalty> (1)
  0.0000

>  <r_epik_Charging_Adjusted_Penalty> (1)
0

>  <i_epik_Tot_Q> (1)
0

>  <i_epik_Tot_abs_Q> (1)
0

>  <s_lp_Force_Field> (1)
S-OPLS

>  <r_lp_Energy> (1)
6.023966

>  <b_lp_Chiralities_Consistent> (1)
1

$$$$
