17877_1,3-dimethyl-2-ethylbenzene
                    3D
 Schrodinger Suite 2021-3.
 24 24  0  0  1  0            999 V2000
   -0.5677    1.4644   -0.0001 C   0  0  0  0  0  0
   -0.0197    0.0245    0.0000 C   0  0  0  0  0  0
    1.4974   -0.0178    0.0000 C   0  0  0  0  0  0
    2.2075   -0.0160   -1.2194 C   0  0  0  0  0  0
    3.6067   -0.0204   -1.2020 C   0  0  0  0  0  0
    4.3075   -0.0242    0.0001 C   0  0  0  0  0  0
    3.6066   -0.0204    1.2022 C   0  0  0  0  0  0
    2.2074   -0.0160    1.2194 C   0  0  0  0  0  0
    1.4870   -0.0210    2.5507 C   0  0  0  0  0  0
    1.4871   -0.0209   -2.5507 C   0  0  0  0  0  0
   -1.6628    1.4714    0.0001 H   0  0  0  0  0  0
   -0.2243    2.0155   -0.8811 H   0  0  0  0  0  0
   -0.2240    2.0157    0.8807 H   0  0  0  0  0  0
   -0.4123   -0.5067    0.8728 H   0  0  0  0  0  0
   -0.4123   -0.5067   -0.8727 H   0  0  0  0  0  0
    4.1492   -0.0213   -2.1441 H   0  0  0  0  0  0
    5.3938   -0.0277    0.0002 H   0  0  0  0  0  0
    4.1490   -0.0212    2.1443 H   0  0  0  0  0  0
    2.1963    0.0658    3.3780 H   0  0  0  0  0  0
    0.9197   -0.9477    2.7004 H   0  0  0  0  0  0
    0.7743    0.8059    2.6377 H   0  0  0  0  0  0
    2.1964    0.0659   -3.3780 H   0  0  0  0  0  0
    0.7745    0.8061   -2.6377 H   0  0  0  0  0  0
    0.9196   -0.9475   -2.7005 H   0  0  0  0  0  0
  1  2  1  0  0  0
  1 11  1  0  0  0
  1 12  1  0  0  0
  1 13  1  0  0  0
  2  3  1  0  0  0
  2 14  1  0  0  0
  2 15  1  0  0  0
  3  8  1  0  0  0
  3  4  2  0  0  0
  4  5  1  0  0  0
  4 10  1  0  0  0
  5  6  2  0  0  0
  5 16  1  0  0  0
  6  7  1  0  0  0
  6 17  1  0  0  0
  7  8  2  0  0  0
  7 18  1  0  0  0
  8  9  1  0  0  0
  9 19  1  0  0  0
  9 20  1  0  0  0
  9 21  1  0  0  0
 10 22  1  0  0  0
 10 23  1  0  0  0
 10 24  1  0  0  0
M  END
>  <i_m_Spin_multiplicity> (1)
1

>  <s_j_Task> (1)
Single Point

>  <s_j_QM_Method> (1)
DFT(b3lyp-d3)

>  <s_j_QM_Basis> (1)
cc-pvtz(-f)

>  <i_j_Number_of_canonical_orbitals> (1)
348

>  <i_j_Geometry_convergence_category> (1)
3

>  <r_j_Gas_Phase_Energy> (1)
-389.654735298059

>  <r_j_Final_Energy> (1)
-389.654735298059

>  <r_j_HOMO> (1)
-0.235105127902219

>  <r_j_LUMO> (1)
-0.00757038146671742

>  <r_j_Polarizability> (1)
114.55218585767

>  <r_j_QM_Dipole_(debye)> (1)
0.677461505384979

>  <r_j_QM_Dipole_X_(debye)> (1)
-0.677461416885517

>  <r_j_QM_Dipole_Y_(debye)> (1)
0.00034265139014503

>  <r_j_QM_Dipole_Z_(debye)> (1)
-4.99997534995355e-05

>  <r_j_Lowest_Frequency_(cm-1)> (1)
114.897709992767

>  <r_j_Highest_Frequency_(cm-1)> (1)
3138.71054917165

>  <r_j_2nd_Lowest_Frequency_(cm-1)> (1)
138.889273709607

>  <i_j_Num_Negative_Frequencies> (1)
0

>  <r_j_Zero_Point_Energy_(kcal/mol)> (1)
132.980673203583

>  <r_j_Entropy_(cal/mol/K)_298.15K_1.00E+00atm> (1)
93.9303273871896

>  <r_j_Enthalpy_(kcal/mol)_298.15K_1.00E+00atm> (1)
6.69994047448165

>  <r_j_Free_Energy_(kcal/mol)_298.15K_1.00E+00atm> (1)
-21.3053866360089

>  <r_j_Internal_Energy_(kcal/mol)_298.15K_1.00E+00atm> (1)
6.10745488565438

>  <r_j_Heat_Capacity_(cal/mol/K)_298.15K_1.00E+00atm> (1)
38.8775995454032

>  <r_j_ln(Q)_298.15K_1.00E+00atm> (1)
35.9593330838297

>  <r_j_Total_Internal_Energy_(au)_298.15K_1.00E+00atm> (1)
-389.433084255742

>  <r_j_Total_Enthalpy_(au)_298.15K_1.00E+00atm> (1)
-389.43214006985

>  <r_j_Total_Free_Energy_(au)_298.15K_1.00E+00atm> (1)
-389.476769399684

>  <r_lp_tautomer_probability> (1)
1

>  <r_epik_Ionization_Penalty> (1)
  0.0000

>  <r_epik_Ionization_Penalty_Charging> (1)
  0.0000

>  <r_epik_Ionization_Penalty_Neutral> (1)
  0.0000

>  <r_epik_State_Penalty> (1)
  0.0000

>  <r_epik_Charging_Adjusted_Penalty> (1)
0

>  <i_epik_Tot_Q> (1)
0

>  <i_epik_Tot_abs_Q> (1)
0

>  <s_lp_Force_Field> (1)
S-OPLS

>  <r_lp_Energy> (1)
8.90533

>  <b_lp_Chiralities_Consistent> (1)
1

$$$$
