178_Acetamide
                    3D
 Schrodinger Suite 2021-3.
  9  8  0  0  1  0            999 V2000
   -0.0211    0.0027    0.0000 C   0  0  0  0  0  0
    1.5013    0.0534    0.0000 C   0  0  0  0  0  0
    2.1834   -0.9597    0.0000 O   0  0  0  0  0  0
    2.0528    1.3049    0.0000 N   0  0  0  0  0  0
   -0.5042    0.9837    0.0000 H   0  0  0  0  0  0
   -0.3474   -0.5563    0.8808 H   0  0  0  0  0  0
   -0.3474   -0.5563   -0.8809 H   0  0  0  0  0  0
    1.5021    2.1469    0.0000 H   0  0  0  0  0  0
    3.0588    1.3775    0.0000 H   0  0  0  0  0  0
  1  2  1  0  0  0
  1  5  1  0  0  0
  1  6  1  0  0  0
  1  7  1  0  0  0
  2  3  2  0  0  0
  2  4  1  0  0  0
  4  8  1  0  0  0
  4  9  1  0  0  0
M  END
>  <i_m_Spin_multiplicity> (1)
1

>  <s_j_Task> (1)
Single Point

>  <s_j_QM_Method> (1)
DFT(b3lyp-d3)

>  <s_j_QM_Basis> (1)
cc-pvtz(-f)

>  <i_j_Number_of_canonical_orbitals> (1)
137

>  <i_j_Geometry_convergence_category> (1)
0

>  <r_j_Gas_Phase_Energy> (1)
-209.29980495675

>  <r_j_Final_Energy> (1)
-209.29980495675

>  <r_j_HOMO> (1)
-0.25687293367203

>  <r_j_LUMO> (1)
0.0205843720164254

>  <r_j_Polarizability> (1)
35.3152379311939

>  <r_j_QM_Dipole_(debye)> (1)
3.82696213728864

>  <r_j_QM_Dipole_X_(debye)> (1)
-1.40611842797198

>  <r_j_QM_Dipole_Y_(debye)> (1)
3.55927944486873

>  <r_j_QM_Dipole_Z_(debye)> (1)
-9.66329917117002e-06

>  <r_j_Lowest_Frequency_(cm-1)> (1)
174.023044249044

>  <r_j_Highest_Frequency_(cm-1)> (1)
3684.21836197754

>  <r_j_2nd_Lowest_Frequency_(cm-1)> (1)
205.074704352297

>  <i_j_Num_Negative_Frequencies> (1)
0

>  <r_j_Zero_Point_Energy_(kcal/mol)> (1)
45.9383989422925

>  <r_j_Entropy_(cal/mol/K)_298.15K_1.00E+00atm> (1)
69.2916003613895

>  <r_j_Enthalpy_(kcal/mol)_298.15K_1.00E+00atm> (1)
3.69485912199814

>  <r_j_Free_Energy_(kcal/mol)_298.15K_1.00E+00atm> (1)
-16.9644315257502

>  <r_j_Internal_Energy_(kcal/mol)_298.15K_1.00E+00atm> (1)
3.10237353317087

>  <r_j_Heat_Capacity_(cal/mol/K)_298.15K_1.00E+00atm> (1)
16.1964076667444

>  <r_j_ln(Q)_298.15K_1.00E+00atm> (1)
28.6326483642047

>  <r_j_Total_Internal_Energy_(au)_298.15K_1.00E+00atm> (1)
-209.221653510724

>  <r_j_Total_Enthalpy_(au)_298.15K_1.00E+00atm> (1)
-209.220709324832

>  <r_j_Total_Free_Energy_(au)_298.15K_1.00E+00atm> (1)
-209.253632000322

>  <r_lp_tautomer_probability> (1)
1

>  <r_epik_Ionization_Penalty> (1)
  0.0000

>  <r_epik_Ionization_Penalty_Charging> (1)
  0.0000

>  <r_epik_Ionization_Penalty_Neutral> (1)
  0.0000

>  <r_epik_State_Penalty> (1)
  0.0000

>  <r_epik_Charging_Adjusted_Penalty> (1)
0

>  <i_epik_Tot_Q> (1)
0

>  <i_epik_Tot_abs_Q> (1)
0

>  <s_lp_Force_Field> (1)
S-OPLS

>  <r_lp_Energy> (1)
-5.301621

>  <b_lp_Chiralities_Consistent> (1)
1

$$$$
