180933_1,4-chrysenequinone
                    3D
 Schrodinger Suite 2021-3.
 30 33  0  0  1  0            999 V2000
   -1.9988   -4.6077   -0.2289 C   0  0  0  0  0  0
   -2.7827   -3.7281    0.5398 C   0  0  0  0  0  0
   -2.3893   -2.4161    0.7220 C   0  0  0  0  0  0
   -1.1959   -1.9176    0.1469 C   0  0  0  0  0  0
   -0.4093   -2.8142   -0.6293 C   0  0  0  0  0  0
   -0.8297   -4.1528   -0.8030 C   0  0  0  0  0  0
    0.8016   -2.3398   -1.2224 C   0  0  0  0  0  0
    1.2288   -1.0573   -1.0725 C   0  0  0  0  0  0
    0.4770   -0.1044   -0.3006 C   0  0  0  0  0  0
   -0.7445   -0.5420    0.3131 C   0  0  0  0  0  0
   -1.4925    0.3831    1.0748 C   0  0  0  0  0  0
   -1.0768    1.6842    1.2386 C   0  0  0  0  0  0
    0.1142    2.1298    0.6455 C   0  0  0  0  0  0
    0.8999    1.2567   -0.1235 C   0  0  0  0  0  0
    2.1560    1.8073   -0.7261 C   0  0  0  0  0  0
    2.9418    1.1671   -1.4213 O   0  0  0  0  0  0
    2.4912    3.2359   -0.4731 C   0  0  0  0  0  0
    1.7301    4.0532    0.2648 C   0  0  0  0  0  0
    0.4832    3.5610    0.8790 C   0  0  0  0  0  0
   -0.2176    4.3068    1.5551 O   0  0  0  0  0  0
   -2.3142   -5.6373   -0.3677 H   0  0  0  0  0  0
   -3.7040   -4.0802    0.9943 H   0  0  0  0  0  0
   -3.0204   -1.7705    1.3207 H   0  0  0  0  0  0
   -0.2128   -4.8195   -1.3994 H   0  0  0  0  0  0
    1.3928   -3.0365   -1.8111 H   0  0  0  0  0  0
    2.1483   -0.7345   -1.5341 H   0  0  0  0  0  0
   -2.4174    0.0750    1.5465 H   0  0  0  0  0  0
   -1.6533    2.3920    1.8238 H   0  0  0  0  0  0
    3.4158    3.5616   -0.9402 H   0  0  0  0  0  0
    1.9799    5.0940    0.4469 H   0  0  0  0  0  0
  1  6  1  0  0  0
  1  2  2  0  0  0
  1 21  1  0  0  0
  2  3  1  0  0  0
  2 22  1  0  0  0
  3  4  2  0  0  0
  3 23  1  0  0  0
  4 10  1  0  0  0
  4  5  1  0  0  0
  5  6  2  0  0  0
  5  7  1  0  0  0
  6 24  1  0  0  0
  7  8  2  0  0  0
  7 25  1  0  0  0
  8  9  1  0  0  0
  8 26  1  0  0  0
  9 14  1  0  0  0
  9 10  2  0  0  0
 10 11  1  0  0  0
 11 12  2  0  0  0
 11 27  1  0  0  0
 12 13  1  0  0  0
 12 28  1  0  0  0
 13 19  1  0  0  0
 13 14  2  0  0  0
 14 15  1  0  0  0
 15 16  2  0  0  0
 15 17  1  0  0  0
 17 18  2  0  0  0
 17 29  1  0  0  0
 18 19  1  0  0  0
 18 30  1  0  0  0
 19 20  2  0  0  0
M  END
>  <i_m_Spin_multiplicity> (1)
1

>  <s_j_Task> (1)
Single Point

>  <s_j_QM_Method> (1)
DFT(b3lyp-d3)

>  <s_j_QM_Basis> (1)
cc-pvtz(-f)

>  <i_j_Number_of_canonical_orbitals> (1)
534

>  <i_j_Geometry_convergence_category> (1)
0

>  <r_j_Gas_Phase_Energy> (1)
-842.678843396535

>  <r_j_Final_Energy> (1)
-842.678843396535

>  <r_j_HOMO> (1)
-0.239921566210207

>  <r_j_LUMO> (1)
-0.121095831367914

>  <r_j_Polarizability> (1)
226.529101423613

>  <r_j_QM_Dipole_(debye)> (1)
2.37466787129945

>  <r_j_QM_Dipole_X_(debye)> (1)
-1.05491085087407

>  <r_j_QM_Dipole_Y_(debye)> (1)
-2.12723928931307

>  <r_j_QM_Dipole_Z_(debye)> (1)
-0.0326129068441477

>  <r_j_Lowest_Frequency_(cm-1)> (1)
63.7870870143169

>  <r_j_Highest_Frequency_(cm-1)> (1)
3221.87279389833

>  <r_j_2nd_Lowest_Frequency_(cm-1)> (1)
67.5664640718229

>  <i_j_Num_Negative_Frequencies> (1)
0

>  <r_j_Zero_Point_Energy_(kcal/mol)> (1)
141.605338148508

>  <r_j_Entropy_(cal/mol/K)_298.15K_1.00E+00atm> (1)
114.060304264378

>  <r_j_Enthalpy_(kcal/mol)_298.15K_1.00E+00atm> (1)
9.08523670344447

>  <r_j_Free_Energy_(kcal/mol)_298.15K_1.00E+00atm> (1)
-24.9218430129799

>  <r_j_Internal_Energy_(kcal/mol)_298.15K_1.00E+00atm> (1)
8.49275111461719

>  <r_j_Heat_Capacity_(cal/mol/K)_298.15K_1.00E+00atm> (1)
57.0577931160737

>  <r_j_ln(Q)_298.15K_1.00E+00atm> (1)
42.0632053891953

>  <r_j_Total_Internal_Energy_(au)_298.15K_1.00E+00atm> (1)
-842.43964686415

>  <r_j_Total_Enthalpy_(au)_298.15K_1.00E+00atm> (1)
-842.438702678257

>  <r_j_Total_Free_Energy_(au)_298.15K_1.00E+00atm> (1)
-842.492896409734

>  <r_lp_tautomer_probability> (1)
1

>  <r_epik_Ionization_Penalty> (1)
  0.0000

>  <r_epik_Ionization_Penalty_Charging> (1)
  0.0000

>  <r_epik_Ionization_Penalty_Neutral> (1)
  0.0000

>  <r_epik_State_Penalty> (1)
  0.0000

>  <r_epik_Charging_Adjusted_Penalty> (1)
0

>  <i_epik_Tot_Q> (1)
0

>  <i_epik_Tot_abs_Q> (1)
0

>  <s_lp_Force_Field> (1)
S-OPLS

>  <r_lp_Energy> (1)
46.4193

>  <b_lp_Chiralities_Consistent> (1)
1

$$$$
