182132_Octatriene
                    3D
 Schrodinger Suite 2021-3.
 20 19  0  0  1  0            999 V2000
   -0.6662    1.3977   -0.2956 C   0  0  0  0  0  0
   -0.0146    0.0728    0.1409 C   0  0  0  0  0  0
    1.4838    0.1509    0.1590 C   0  0  0  0  0  0
    2.2585   -0.0139    1.2463 C   0  0  0  0  0  0
    3.7035    0.0829    1.2474 C   0  0  0  0  0  0
    4.4810   -0.0824    2.3416 C   0  0  0  0  0  0
    5.9272    0.0165    2.3373 C   0  0  0  0  0  0
    6.7062   -0.1462    3.4193 C   0  0  0  0  0  0
   -1.7564    1.3063   -0.3348 H   0  0  0  0  0  0
   -0.3185    1.6980   -1.2903 H   0  0  0  0  0  0
   -0.4139    2.2027    0.4017 H   0  0  0  0  0  0
   -0.3848   -0.2151    1.1322 H   0  0  0  0  0  0
   -0.3305   -0.7200   -0.5529 H   0  0  0  0  0  0
    1.9623    0.3782   -0.7955 H   0  0  0  0  0  0
    1.7829   -0.2362    2.2027 H   0  0  0  0  0  0
    4.1817    0.3053    0.2925 H   0  0  0  0  0  0
    4.0064   -0.3051    3.2979 H   0  0  0  0  0  0
    6.3934    0.2393    1.3772 H   0  0  0  0  0  0
    6.2825   -0.3692    4.3952 H   0  0  0  0  0  0
    7.7863   -0.0618    3.3628 H   0  0  0  0  0  0
  1  2  1  0  0  0
  1  9  1  0  0  0
  1 10  1  0  0  0
  1 11  1  0  0  0
  2  3  1  0  0  0
  2 12  1  0  0  0
  2 13  1  0  0  0
  3  4  2  0  0  0
  3 14  1  0  0  0
  4  5  1  0  0  0
  4 15  1  0  0  0
  5  6  2  0  0  0
  5 16  1  0  0  0
  6  7  1  0  0  0
  6 17  1  0  0  0
  7  8  2  0  0  0
  7 18  1  0  0  0
  8 19  1  0  0  0
  8 20  1  0  0  0
M  END
>  <i_m_Spin_multiplicity> (1)
1

>  <s_j_Task> (1)
Single Point

>  <s_j_QM_Method> (1)
DFT(b3lyp-d3)

>  <s_j_QM_Basis> (1)
cc-pvtz(-f)

>  <i_j_Number_of_canonical_orbitals> (1)
289

>  <i_j_Geometry_convergence_category> (1)
0

>  <r_j_Gas_Phase_Energy> (1)
-312.151908557216

>  <r_j_Final_Energy> (1)
-312.151908557216

>  <r_j_HOMO> (1)
-0.220611486932015

>  <r_j_LUMO> (1)
-0.060620750291896

>  <r_j_Polarizability> (1)
121.843071913081

>  <r_j_QM_Dipole_(debye)> (1)
0.828432674735206

>  <r_j_QM_Dipole_X_(debye)> (1)
-0.721728269220439

>  <r_j_QM_Dipole_Y_(debye)> (1)
0.0527429760816754

>  <r_j_QM_Dipole_Z_(debye)> (1)
-0.403270604496591

>  <r_j_Lowest_Frequency_(cm-1)> (1)
78.9700801050585

>  <r_j_Highest_Frequency_(cm-1)> (1)
3182.72048837962

>  <r_j_2nd_Lowest_Frequency_(cm-1)> (1)
126.417984627419

>  <i_j_Num_Negative_Frequencies> (1)
0

>  <r_j_Zero_Point_Energy_(kcal/mol)> (1)
109.813101367839

>  <r_j_Entropy_(cal/mol/K)_298.15K_1.00E+00atm> (1)
91.2969096408268

>  <r_j_Enthalpy_(kcal/mol)_298.15K_1.00E+00atm> (1)
6.24149503387836

>  <r_j_Free_Energy_(kcal/mol)_298.15K_1.00E+00atm> (1)
-20.9786785755341

>  <r_j_Internal_Energy_(kcal/mol)_298.15K_1.00E+00atm> (1)
5.64900944505109

>  <r_j_Heat_Capacity_(cal/mol/K)_298.15K_1.00E+00atm> (1)
33.3197414358156

>  <r_j_ln(Q)_298.15K_1.00E+00atm> (1)
35.4079136626055

>  <r_j_Total_Internal_Energy_(au)_298.15K_1.00E+00atm> (1)
-311.967907970241

>  <r_j_Total_Enthalpy_(au)_298.15K_1.00E+00atm> (1)
-311.966963784348

>  <r_j_Total_Free_Energy_(au)_298.15K_1.00E+00atm> (1)
-312.010341892426

>  <r_lp_tautomer_probability> (1)
1

>  <r_epik_Ionization_Penalty> (1)
  0.0000

>  <r_epik_Ionization_Penalty_Charging> (1)
  0.0000

>  <r_epik_Ionization_Penalty_Neutral> (1)
  0.0000

>  <r_epik_State_Penalty> (1)
  0.0000

>  <r_epik_Charging_Adjusted_Penalty> (1)
0

>  <i_epik_Tot_Q> (1)
0

>  <i_epik_Tot_abs_Q> (1)
0

>  <s_lp_Force_Field> (1)
S-OPLS

>  <r_lp_Energy> (1)
-1.474467

>  <b_lp_Chiralities_Consistent> (1)
1

$$$$
