182192_Iso-triacontane
                    3D
 Schrodinger Suite 2021-3.
 92 91  0  0  1  0            999 V2000
   -8.1964   13.7417    1.2744 C   0  0  0  0  0  0
   -7.0079   13.0257    1.9228 C   0  0  0  0  0  0
   -7.0093   11.5115    1.6794 C   0  0  0  0  0  0
   -5.8190   10.7950    2.3263 C   0  0  0  0  0  0
   -5.8027    9.2804    2.0886 C   0  0  0  0  0  0
   -4.5995    8.5873    2.7378 C   0  0  0  0  0  0
   -4.5505    7.0726    2.5058 C   0  0  0  0  0  0
   -3.3264    6.4133    3.1513 C   0  0  0  0  0  0
   -3.2333    4.9004    2.9205 C   0  0  0  0  0  0
   -1.9734    4.2894    3.5478 C   0  0  0  0  0  0
   -1.8369    2.7688    3.3841 C   0  0  0  0  0  0
   -1.7586    2.2924    1.9260 C   0  0  0  0  0  0
   -1.2859    0.8397    1.7945 C   0  0  0  0  0  0
   -1.2841    0.3282    0.3467 C   0  0  0  0  0  0
   -0.6066   -1.0406    0.1614 C   0  0  0  0  0  0
    0.9182   -0.9940    0.3283 C   0  0  0  0  0  0
    1.6193   -2.3390    0.1038 C   0  0  0  0  0  0
    3.1433   -2.2278    0.2302 C   0  0  0  0  0  0
    3.8990   -3.5448    0.0187 C   0  0  0  0  0  0
    5.4199   -3.3638    0.0949 C   0  0  0  0  0  0
    6.2240   -4.6529   -0.1100 C   0  0  0  0  0  0
    7.7380   -4.4089   -0.0959 C   0  0  0  0  0  0
    8.5747   -5.6787   -0.2998 C   0  0  0  0  0  0
   10.0933   -5.4367   -0.2719 C   0  0  0  0  0  0
   10.6120   -4.5964   -1.4490 C   0  0  0  0  0  0
   12.1379   -4.4174   -1.4766 C   0  0  0  0  0  0
   12.6919   -3.6158   -0.2886 C   0  0  0  0  0  0
   14.1597   -3.1725   -0.4372 C   0  0  0  0  0  0
   15.1173   -4.3650   -0.5743 C   0  0  0  0  0  0
   14.5752   -2.2828    0.7430 C   0  0  0  0  0  0
   -8.1696   14.8199    1.4642 H   0  0  0  0  0  0
   -9.1471   13.3581    1.6623 H   0  0  0  0  0  0
   -8.2005   13.5942    0.1882 H   0  0  0  0  0  0
   -6.0697   13.4512    1.5412 H   0  0  0  0  0  0
   -7.0088   13.2170    3.0047 H   0  0  0  0  0  0
   -7.9466   11.0825    2.0622 H   0  0  0  0  0  0
   -7.0080   11.3176    0.5971 H   0  0  0  0  0  0
   -4.8843   11.2303    1.9443 H   0  0  0  0  0  0
   -5.8223   10.9915    3.4082 H   0  0  0  0  0  0
   -6.7324    8.8392    2.4754 H   0  0  0  0  0  0
   -5.7993    9.0808    1.0075 H   0  0  0  0  0  0
   -3.6736    9.0398    2.3543 H   0  0  0  0  0  0
   -4.6064    8.7878    3.8189 H   0  0  0  0  0  0
   -5.4673    6.6108    2.8992 H   0  0  0  0  0  0
   -4.5475    6.8689    1.4254 H   0  0  0  0  0  0
   -2.4154    6.8911    2.7626 H   0  0  0  0  0  0
   -3.3335    6.6158    4.2321 H   0  0  0  0  0  0
   -4.1254    4.4076    3.3337 H   0  0  0  0  0  0
   -3.2470    4.7003    1.8410 H   0  0  0  0  0  0
   -1.0884    4.7743    3.1106 H   0  0  0  0  0  0
   -1.9548    4.5366    4.6182 H   0  0  0  0  0  0
   -0.9303    2.4432    3.9127 H   0  0  0  0  0  0
   -2.6757    2.2656    3.8855 H   0  0  0  0  0  0
   -2.7370    2.4057    1.4405 H   0  0  0  0  0  0
   -1.0673    2.9414    1.3685 H   0  0  0  0  0  0
   -0.2776    0.7639    2.2218 H   0  0  0  0  0  0
   -1.9224    0.1852    2.4071 H   0  0  0  0  0  0
   -2.3211    0.2771   -0.0108 H   0  0  0  0  0  0
   -0.7793    1.0632   -0.2971 H   0  0  0  0  0  0
   -1.0347   -1.7628    0.8714 H   0  0  0  0  0  0
   -0.8395   -1.4255   -0.8405 H   0  0  0  0  0  0
    1.3279   -0.2544   -0.3752 H   0  0  0  0  0  0
    1.1741   -0.6274    1.3310 H   0  0  0  0  0  0
    1.2408   -3.0770    0.8253 H   0  0  0  0  0  0
    1.3619   -2.7270   -0.8922 H   0  0  0  0  0  0
    3.5074   -1.4860   -0.4954 H   0  0  0  0  0  0
    3.3948   -1.8244    1.2217 H   0  0  0  0  0  0
    3.5753   -4.2805    0.7686 H   0  0  0  0  0  0
    3.6305   -3.9689   -0.9595 H   0  0  0  0  0  0
    5.7285   -2.6257   -0.6597 H   0  0  0  0  0  0
    5.6840   -2.9252    1.0680 H   0  0  0  0  0  0
    5.9584   -5.3813    0.6693 H   0  0  0  0  0  0
    5.9391   -5.1138   -1.0667 H   0  0  0  0  0  0
    7.9802   -3.6748   -0.8751 H   0  0  0  0  0  0
    8.0224   -3.9411    0.8581 H   0  0  0  0  0  0
    8.3121   -6.4054    0.4809 H   0  0  0  0  0  0
    8.2988   -6.1467   -1.2559 H   0  0  0  0  0  0
   10.3588   -4.9528    0.6774 H   0  0  0  0  0  0
   10.6130   -6.4048   -0.2758 H   0  0  0  0  0  0
   10.2893   -5.0707   -2.3862 H   0  0  0  0  0  0
   10.1432   -3.6038   -1.4335 H   0  0  0  0  0  0
   12.6147   -5.4055   -1.5173 H   0  0  0  0  0  0
   12.4159   -3.9056   -2.4084 H   0  0  0  0  0  0
   12.0696   -2.7201   -0.1489 H   0  0  0  0  0  0
   12.5936   -4.2000    0.6370 H   0  0  0  0  0  0
   14.2332   -2.5718   -1.3568 H   0  0  0  0  0  0
   15.0465   -5.0191    0.3040 H   0  0  0  0  0  0
   16.1564   -4.0273   -0.6538 H   0  0  0  0  0  0
   14.8968   -4.9691   -1.4594 H   0  0  0  0  0  0
   14.5228   -2.8402    1.6866 H   0  0  0  0  0  0
   13.9206   -1.4092    0.8364 H   0  0  0  0  0  0
   15.6033   -1.9221    0.6280 H   0  0  0  0  0  0
  1  2  1  0  0  0
  1 31  1  0  0  0
  1 32  1  0  0  0
  1 33  1  0  0  0
  2  3  1  0  0  0
  2 34  1  0  0  0
  2 35  1  0  0  0
  3  4  1  0  0  0
  3 36  1  0  0  0
  3 37  1  0  0  0
  4  5  1  0  0  0
  4 38  1  0  0  0
  4 39  1  0  0  0
  5  6  1  0  0  0
  5 40  1  0  0  0
  5 41  1  0  0  0
  6  7  1  0  0  0
  6 42  1  0  0  0
  6 43  1  0  0  0
  7  8  1  0  0  0
  7 44  1  0  0  0
  7 45  1  0  0  0
  8  9  1  0  0  0
  8 46  1  0  0  0
  8 47  1  0  0  0
  9 10  1  0  0  0
  9 48  1  0  0  0
  9 49  1  0  0  0
 10 11  1  0  0  0
 10 50  1  0  0  0
 10 51  1  0  0  0
 11 12  1  0  0  0
 11 52  1  0  0  0
 11 53  1  0  0  0
 12 13  1  0  0  0
 12 54  1  0  0  0
 12 55  1  0  0  0
 13 14  1  0  0  0
 13 56  1  0  0  0
 13 57  1  0  0  0
 14 15  1  0  0  0
 14 58  1  0  0  0
 14 59  1  0  0  0
 15 16  1  0  0  0
 15 60  1  0  0  0
 15 61  1  0  0  0
 16 17  1  0  0  0
 16 62  1  0  0  0
 16 63  1  0  0  0
 17 18  1  0  0  0
 17 64  1  0  0  0
 17 65  1  0  0  0
 18 19  1  0  0  0
 18 66  1  0  0  0
 18 67  1  0  0  0
 19 20  1  0  0  0
 19 68  1  0  0  0
 19 69  1  0  0  0
 20 21  1  0  0  0
 20 70  1  0  0  0
 20 71  1  0  0  0
 21 22  1  0  0  0
 21 72  1  0  0  0
 21 73  1  0  0  0
 22 23  1  0  0  0
 22 74  1  0  0  0
 22 75  1  0  0  0
 23 24  1  0  0  0
 23 76  1  0  0  0
 23 77  1  0  0  0
 24 25  1  0  0  0
 24 78  1  0  0  0
 24 79  1  0  0  0
 25 26  1  0  0  0
 25 80  1  0  0  0
 25 81  1  0  0  0
 26 27  1  0  0  0
 26 82  1  0  0  0
 26 83  1  0  0  0
 27 28  1  0  0  0
 27 84  1  0  0  0
 27 85  1  0  0  0
 28 29  1  0  0  0
 28 30  1  0  0  0
 28 86  1  0  0  0
 29 87  1  0  0  0
 29 88  1  0  0  0
 29 89  1  0  0  0
 30 90  1  0  0  0
 30 91  1  0  0  0
 30 92  1  0  0  0
M  END
>  <i_m_Spin_multiplicity> (1)
1

>  <s_j_Task> (1)
Single Point

>  <s_j_QM_Method> (1)
DFT(b3lyp-d3)

>  <s_j_QM_Basis> (1)
cc-pvtz(-f)

>  <i_j_Number_of_canonical_orbitals> (1)
1238

>  <i_j_Geometry_convergence_category> (1)
4

>  <r_j_Gas_Phase_Energy> (1)
-1181.08489381401

>  <r_j_Final_Energy> (1)
-1181.08489381401

>  <r_j_HOMO> (1)
-0.25522005831583

>  <r_j_LUMO> (1)
0.0102027645383891

>  <r_j_Polarizability> (1)
374.777054410755

>  <r_j_QM_Dipole_(debye)> (1)
0.0765991421784425

>  <r_j_QM_Dipole_X_(debye)> (1)
0.00385287615842988

>  <r_j_QM_Dipole_Y_(debye)> (1)
-0.0174145646036872

>  <r_j_QM_Dipole_Z_(debye)> (1)
-0.0744937371021555

>  <r_j_Lowest_Frequency_(cm-1)> (1)
16.099683343167

>  <r_j_Highest_Frequency_(cm-1)> (1)
3053.93958833892

>  <r_j_2nd_Lowest_Frequency_(cm-1)> (1)
23.6801562707844

>  <i_j_Num_Negative_Frequencies> (1)
0

>  <r_j_Zero_Point_Energy_(kcal/mol)> (1)
547.342302406064

>  <r_j_Entropy_(cal/mol/K)_298.15K_1.00E+00atm> (1)
216.723410988471

>  <r_j_Enthalpy_(kcal/mol)_298.15K_1.00E+00atm> (1)
23.6956633796111

>  <r_j_Free_Energy_(kcal/mol)_298.15K_1.00E+00atm> (1)
-40.9204216066017

>  <r_j_Internal_Energy_(kcal/mol)_298.15K_1.00E+00atm> (1)
23.1031777907838

>  <r_j_Heat_Capacity_(cal/mol/K)_298.15K_1.00E+00atm> (1)
142.836232896508

>  <r_j_ln(Q)_298.15K_1.00E+00atm> (1)
69.0656825722914

>  <r_j_Total_Internal_Energy_(au)_298.15K_1.00E+00atm> (1)
-1180.17583107079

>  <r_j_Total_Enthalpy_(au)_298.15K_1.00E+00atm> (1)
-1180.1748868849

>  <r_j_Total_Free_Energy_(au)_298.15K_1.00E+00atm> (1)
-1180.27785917149

>  <r_lp_tautomer_probability> (1)
1

>  <r_epik_Ionization_Penalty> (1)
  0.0000

>  <r_epik_Ionization_Penalty_Charging> (1)
  0.0000

>  <r_epik_Ionization_Penalty_Neutral> (1)
  0.0000

>  <r_epik_State_Penalty> (1)
  0.0000

>  <r_epik_Charging_Adjusted_Penalty> (1)
0

>  <i_epik_Tot_Q> (1)
0

>  <i_epik_Tot_abs_Q> (1)
0

>  <s_lp_Force_Field> (1)
S-OPLS

>  <r_lp_Energy> (1)
16.706948

>  <b_lp_Chiralities_Consistent> (1)
1

$$$$
