18302_1,2,4-butanetriol
                    3D
 Schrodinger Suite 2021-3.
 17 16  0  0  1  0            999 V2000
    0.0382    0.0559    0.0456 C   0  0  0  0  0  0
   -0.4940    1.4787   -0.0541 C   0  0  0  0  0  0
   -1.9134    1.4170    0.0121 O   0  0  0  0  0  0
    1.5651   -0.0288   -0.0088 C   0  0  0  0  0  0
    2.0528   -1.4741   -0.0504 C   0  0  0  0  0  0
    1.5735   -2.0593   -1.2554 O   0  0  0  0  0  0
    2.1861    0.5385    1.1479 O   0  0  0  0  0  0
   -0.3071   -0.3875    0.9869 H   0  0  0  0  0  0
   -0.3770   -0.5368   -0.7753 H   0  0  0  0  0  0
   -0.0886    2.0916    0.7709 H   0  0  0  0  0  0
   -0.1528    1.9365   -0.9989 H   0  0  0  0  0  0
   -2.2581    2.3159   -0.0612 H   0  0  0  0  0  0
    1.9257    0.4659   -0.9268 H   0  0  0  0  0  0
    3.1517   -1.4690   -0.0009 H   0  0  0  0  0  0
    1.6782   -1.9973    0.8435 H   0  0  0  0  0  0
    1.7906   -2.9989   -1.2400 H   0  0  0  0  0  0
    2.0360    1.4910    1.1364 H   0  0  0  0  0  0
  1  2  1  0  0  0
  1  4  1  0  0  0
  1  8  1  0  0  0
  1  9  1  0  0  0
  2  3  1  0  0  0
  2 10  1  0  0  0
  2 11  1  0  0  0
  3 12  1  0  0  0
  4  5  1  0  0  0
  4  7  1  0  0  0
  4 13  1  0  0  0
  5  6  1  0  0  0
  5 14  1  0  0  0
  5 15  1  0  0  0
  6 16  1  0  0  0
  7 17  1  0  0  0
M  END
>  <i_m_Spin_multiplicity> (1)
1

>  <s_j_Task> (1)
Single Point

>  <s_j_QM_Method> (1)
DFT(b3lyp-d3)

>  <s_j_QM_Basis> (1)
cc-pvtz(-f)

>  <i_j_Number_of_canonical_orbitals> (1)
251

>  <i_j_Geometry_convergence_category> (1)
0

>  <r_j_Gas_Phase_Energy> (1)
-384.250386417388

>  <r_j_Final_Energy> (1)
-384.250386417388

>  <r_j_HOMO> (1)
-0.271014568860992

>  <r_j_LUMO> (1)
0.0173018258804223

>  <r_j_Polarizability> (1)
62.3996274738407

>  <r_j_QM_Dipole_(debye)> (1)
1.25874238921848

>  <r_j_QM_Dipole_X_(debye)> (1)
0.59433742850825

>  <r_j_QM_Dipole_Y_(debye)> (1)
1.08499128892373

>  <r_j_QM_Dipole_Z_(debye)> (1)
-0.232356033812931

>  <r_j_Lowest_Frequency_(cm-1)> (1)
103.702687467741

>  <r_j_Highest_Frequency_(cm-1)> (1)
3789.08989552363

>  <r_j_2nd_Lowest_Frequency_(cm-1)> (1)
135.01981325057

>  <i_j_Num_Negative_Frequencies> (1)
0

>  <r_j_Zero_Point_Energy_(kcal/mol)> (1)
91.894512829416

>  <r_j_Entropy_(cal/mol/K)_298.15K_1.00E+00atm> (1)
89.0999356505098

>  <r_j_Enthalpy_(kcal/mol)_298.15K_1.00E+00atm> (1)
5.95878250166064

>  <r_j_Free_Energy_(kcal/mol)_298.15K_1.00E+00atm> (1)
-20.6063633125389

>  <r_j_Internal_Energy_(kcal/mol)_298.15K_1.00E+00atm> (1)
5.36629691283336

>  <r_j_Heat_Capacity_(cal/mol/K)_298.15K_1.00E+00atm> (1)
30.4826089652344

>  <r_j_ln(Q)_298.15K_1.00E+00atm> (1)
34.7795181876503

>  <r_j_Total_Internal_Energy_(au)_298.15K_1.00E+00atm> (1)
-384.095391450153

>  <r_j_Total_Enthalpy_(au)_298.15K_1.00E+00atm> (1)
-384.09444726426

>  <r_j_Total_Free_Energy_(au)_298.15K_1.00E+00atm> (1)
-384.136781519095

>  <r_lp_tautomer_probability> (1)
1

>  <r_epik_Ionization_Penalty> (1)
  0.0000

>  <r_epik_Ionization_Penalty_Charging> (1)
  0.0000

>  <r_epik_Ionization_Penalty_Neutral> (1)
  0.0000

>  <r_epik_State_Penalty> (1)
  0.0000

>  <r_epik_Charging_Adjusted_Penalty> (1)
0

>  <i_epik_Tot_Q> (1)
0

>  <i_epik_Tot_abs_Q> (1)
0

>  <s_lp_Force_Field> (1)
S-OPLS

>  <r_lp_Energy> (1)
1.607889

>  <b_lp_Chiralities_Consistent> (1)
1

$$$$
