18313_Hexane, 3-ethyl-3-methyl-
                    3D
 Schrodinger Suite 2021-3.
 29 28  0  0  1  0            999 V2000
   -2.1801    1.4039    0.0074 C   0  0  0  0  0  0
   -0.6519    1.4880    0.0891 C   0  0  0  0  0  0
    0.0062    0.1068   -0.0483 C   0  0  0  0  0  0
    1.5584    0.0549   -0.0858 C   0  0  0  0  0  0
    2.0805    0.7671   -1.3508 C   0  0  0  0  0  0
    2.1185    0.7513    1.1858 C   0  0  0  0  0  0
    3.6377    0.6960    1.3942 C   0  0  0  0  0  0
    2.0133   -1.4313   -0.0882 C   0  0  0  0  0  0
    1.4619   -2.3235   -1.2083 C   0  0  0  0  0  0
   -2.6433    2.3902    0.1165 H   0  0  0  0  0  0
   -2.5817    0.7576    0.7965 H   0  0  0  0  0  0
   -2.5026    0.9876   -0.9540 H   0  0  0  0  0  0
   -0.2848    2.1588   -0.6975 H   0  0  0  0  0  0
   -0.3710    1.9496    1.0427 H   0  0  0  0  0  0
   -0.3425   -0.5280    0.7801 H   0  0  0  0  0  0
   -0.3801   -0.3566   -0.9650 H   0  0  0  0  0  0
    3.1583    0.6218   -1.4752 H   0  0  0  0  0  0
    1.8970    1.8454   -1.3071 H   0  0  0  0  0  0
    1.5913    0.3873   -2.2534 H   0  0  0  0  0  0
    1.8175    1.8051    1.1649 H   0  0  0  0  0  0
    1.6243    0.3126    2.0643 H   0  0  0  0  0  0
    3.9192    1.2778    2.2783 H   0  0  0  0  0  0
    4.1810    1.1158    0.5414 H   0  0  0  0  0  0
    3.9978   -0.3252    1.5493 H   0  0  0  0  0  0
    3.1079   -1.4587   -0.1414 H   0  0  0  0  0  0
    1.7456   -1.8747    0.8814 H   0  0  0  0  0  0
    1.9047   -3.3232   -1.1477 H   0  0  0  0  0  0
    1.6959   -1.9233   -2.2001 H   0  0  0  0  0  0
    0.3765   -2.4445   -1.1449 H   0  0  0  0  0  0
  1  2  1  0  0  0
  1 10  1  0  0  0
  1 11  1  0  0  0
  1 12  1  0  0  0
  2  3  1  0  0  0
  2 13  1  0  0  0
  2 14  1  0  0  0
  3  4  1  0  0  0
  3 15  1  0  0  0
  3 16  1  0  0  0
  4  5  1  0  0  0
  4  6  1  0  0  0
  4  8  1  0  0  0
  5 17  1  0  0  0
  5 18  1  0  0  0
  5 19  1  0  0  0
  6  7  1  0  0  0
  6 20  1  0  0  0
  6 21  1  0  0  0
  7 22  1  0  0  0
  7 23  1  0  0  0
  7 24  1  0  0  0
  8  9  1  0  0  0
  8 25  1  0  0  0
  8 26  1  0  0  0
  9 27  1  0  0  0
  9 28  1  0  0  0
  9 29  1  0  0  0
M  END
>  <i_m_Spin_multiplicity> (1)
1

>  <s_j_Task> (1)
Single Point

>  <s_j_QM_Method> (1)
DFT(b3lyp-d3)

>  <s_j_QM_Basis> (1)
cc-pvtz(-f)

>  <i_j_Number_of_canonical_orbitals> (1)
384

>  <i_j_Geometry_convergence_category> (1)
3

>  <r_j_Gas_Phase_Energy> (1)
-355.166473101324

>  <r_j_Final_Energy> (1)
-355.166473101324

>  <r_j_HOMO> (1)
-0.297186255221692

>  <r_j_LUMO> (1)
0.0275909245183291

>  <r_j_Polarizability> (1)
109.846998151126

>  <r_j_QM_Dipole_(debye)> (1)
0.0905442027657897

>  <r_j_QM_Dipole_X_(debye)> (1)
0.0446688125651647

>  <r_j_QM_Dipole_Y_(debye)> (1)
0.0507742543792092

>  <r_j_QM_Dipole_Z_(debye)> (1)
0.0602073494745116

>  <r_j_Lowest_Frequency_(cm-1)> (1)
108.483091995094

>  <r_j_Highest_Frequency_(cm-1)> (1)
3060.89507711248

>  <r_j_2nd_Lowest_Frequency_(cm-1)> (1)
125.121488284287

>  <i_j_Num_Negative_Frequencies> (1)
0

>  <r_j_Zero_Point_Energy_(kcal/mol)> (1)
171.679683044807

>  <r_j_Entropy_(cal/mol/K)_298.15K_1.00E+00atm> (1)
100.836439114641

>  <r_j_Enthalpy_(kcal/mol)_298.15K_1.00E+00atm> (1)
7.74834098258186

>  <r_j_Free_Energy_(kcal/mol)_298.15K_1.00E+00atm> (1)
-22.3160433394482

>  <r_j_Internal_Energy_(kcal/mol)_298.15K_1.00E+00atm> (1)
7.15585539375458

>  <r_j_Heat_Capacity_(cal/mol/K)_298.15K_1.00E+00atm> (1)
44.34103978688

>  <r_j_ln(Q)_298.15K_1.00E+00atm> (1)
37.6651242836456

>  <r_j_Total_Internal_Energy_(au)_298.15K_1.00E+00atm> (1)
-354.881480528322

>  <r_j_Total_Enthalpy_(au)_298.15K_1.00E+00atm> (1)
-354.880536342429

>  <r_j_Total_Free_Energy_(au)_298.15K_1.00E+00atm> (1)
-354.928446988817

>  <r_lp_tautomer_probability> (1)
1

>  <r_epik_Ionization_Penalty> (1)
  0.0000

>  <r_epik_Ionization_Penalty_Charging> (1)
  0.0000

>  <r_epik_Ionization_Penalty_Neutral> (1)
  0.0000

>  <r_epik_State_Penalty> (1)
  0.0000

>  <r_epik_Charging_Adjusted_Penalty> (1)
0

>  <i_epik_Tot_Q> (1)
0

>  <i_epik_Tot_abs_Q> (1)
0

>  <s_lp_Force_Field> (1)
S-OPLS

>  <r_lp_Energy> (1)
10.213229

>  <b_lp_Chiralities_Consistent> (1)
1

$$$$
