18554_2-ethylfuran
                    3D
 Schrodinger Suite 2021-3.
 15 15  0  0  1  0            999 V2000
   -0.0317    0.0341   -0.1780 C   0  0  0  0  0  0
    1.4678   -0.0449    0.1568 C   0  0  0  0  0  0
    2.0041   -1.4352    0.1018 C   0  0  0  0  0  0
    2.5623   -2.2703    1.0235 C   0  0  0  0  0  0
    2.8599   -3.4989    0.3428 C   0  0  0  0  0  0
    2.4592   -3.3217   -0.9439 C   0  0  0  0  0  0
    1.9345   -2.0708   -1.1113 O   0  0  0  0  0  0
   -0.3843    1.0699   -0.1495 H   0  0  0  0  0  0
   -0.6203   -0.5505    0.5359 H   0  0  0  0  0  0
   -0.2221   -0.3660   -1.1779 H   0  0  0  0  0  0
    2.0301    0.5908   -0.5400 H   0  0  0  0  0  0
    1.6554    0.3474    1.1618 H   0  0  0  0  0  0
    2.7394   -2.0375    2.0638 H   0  0  0  0  0  0
    3.3102   -4.3884    0.7591 H   0  0  0  0  0  0
    2.4741   -3.9488   -1.8217 H   0  0  0  0  0  0
  1  2  1  0  0  0
  1  8  1  0  0  0
  1  9  1  0  0  0
  1 10  1  0  0  0
  2  3  1  0  0  0
  2 11  1  0  0  0
  2 12  1  0  0  0
  3  7  1  0  0  0
  3  4  2  0  0  0
  4  5  1  0  0  0
  4 13  1  0  0  0
  5  6  2  0  0  0
  5 14  1  0  0  0
  6  7  1  0  0  0
  6 15  1  0  0  0
M  END
>  <i_m_Spin_multiplicity> (1)
1

>  <s_j_Task> (1)
Single Point

>  <s_j_QM_Method> (1)
DFT(b3lyp-d3)

>  <s_j_QM_Basis> (1)
cc-pvtz(-f)

>  <i_j_Number_of_canonical_orbitals> (1)
230

>  <i_j_Geometry_convergence_category> (1)
0

>  <r_j_Gas_Phase_Energy> (1)
-308.770398671024

>  <r_j_Final_Energy> (1)
-308.770398671024

>  <r_j_HOMO> (1)
-0.234756552062171

>  <r_j_LUMO> (1)
-0.00552169593422258

>  <r_j_Polarizability> (1)
69.7506475039675

>  <r_j_QM_Dipole_(debye)> (1)
0.534903525508349

>  <r_j_QM_Dipole_X_(debye)> (1)
-0.000154449108388244

>  <r_j_QM_Dipole_Y_(debye)> (1)
0.209370425127748

>  <r_j_QM_Dipole_Z_(debye)> (1)
0.492225337450806

>  <r_j_Lowest_Frequency_(cm-1)> (1)
106.789512627395

>  <r_j_Highest_Frequency_(cm-1)> (1)
3233.04016316323

>  <r_j_2nd_Lowest_Frequency_(cm-1)> (1)
167.531125518265

>  <i_j_Num_Negative_Frequencies> (1)
0

>  <r_j_Zero_Point_Energy_(kcal/mol)> (1)
78.9803208456424

>  <r_j_Entropy_(cal/mol/K)_298.15K_1.00E+00atm> (1)
78.9260540115357

>  <r_j_Enthalpy_(kcal/mol)_298.15K_1.00E+00atm> (1)
4.56596838322372

>  <r_j_Free_Energy_(kcal/mol)_298.15K_1.00E+00atm> (1)
-18.9658346203157

>  <r_j_Internal_Energy_(kcal/mol)_298.15K_1.00E+00atm> (1)
3.97348279439645

>  <r_j_Heat_Capacity_(cal/mol/K)_298.15K_1.00E+00atm> (1)
23.7423368549113

>  <r_j_ln(Q)_298.15K_1.00E+00atm> (1)
32.0106260438424

>  <r_j_Total_Internal_Energy_(au)_298.15K_1.00E+00atm> (1)
-308.638203369429

>  <r_j_Total_Enthalpy_(au)_298.15K_1.00E+00atm> (1)
-308.637259183537

>  <r_j_Total_Free_Energy_(au)_298.15K_1.00E+00atm> (1)
-308.674759498877

>  <r_lp_tautomer_probability> (1)
1

>  <r_epik_Ionization_Penalty> (1)
  0.0000

>  <r_epik_Ionization_Penalty_Charging> (1)
  0.0000

>  <r_epik_Ionization_Penalty_Neutral> (1)
  0.0000

>  <r_epik_State_Penalty> (1)
  0.0000

>  <r_epik_Charging_Adjusted_Penalty> (1)
0

>  <i_epik_Tot_Q> (1)
0

>  <i_epik_Tot_abs_Q> (1)
0

>  <s_lp_Force_Field> (1)
S-OPLS

>  <r_lp_Energy> (1)
1.29003

>  <b_lp_Chiralities_Consistent> (1)
1

$$$$
