18591_2-methyloctane
                    3D
 Schrodinger Suite 2021-3.
 29 28  0  0  1  0            999 V2000
   -2.7288    2.9123    0.0759 C   0  0  0  0  0  0
   -2.1507    1.4941    0.0624 C   0  0  0  0  0  0
   -0.6192    1.4703   -0.0068 C   0  0  0  0  0  0
   -0.0319    0.0548   -0.0218 C   0  0  0  0  0  0
    1.5000    0.0295   -0.0817 C   0  0  0  0  0  0
    2.0741   -1.3923   -0.1074 C   0  0  0  0  0  0
    3.6104   -1.4810   -0.0448 C   0  0  0  0  0  0
    4.2839   -0.8115   -1.2518 C   0  0  0  0  0  0
    4.0574   -2.9452    0.0734 C   0  0  0  0  0  0
   -3.8225    2.9016    0.1268 H   0  0  0  0  0  0
   -2.4421    3.4633   -0.8272 H   0  0  0  0  0  0
   -2.3601    3.4798    0.9382 H   0  0  0  0  0  0
   -2.4797    0.9538    0.9606 H   0  0  0  0  0  0
   -2.5594    0.9379   -0.7923 H   0  0  0  0  0  0
   -0.2882    2.0119   -0.9047 H   0  0  0  0  0  0
   -0.2090    2.0259    0.8488 H   0  0  0  0  0  0
   -0.3700   -0.4881    0.8725 H   0  0  0  0  0  0
   -0.4379   -0.4977   -0.8813 H   0  0  0  0  0  0
    1.8302    0.5855   -0.9685 H   0  0  0  0  0  0
    1.9062    0.5699    0.7856 H   0  0  0  0  0  0
    1.6569   -1.9544    0.7401 H   0  0  0  0  0  0
    1.7248   -1.9096   -1.0136 H   0  0  0  0  0  0
    3.9377   -0.9521    0.8633 H   0  0  0  0  0  0
    3.9532   -1.2808   -2.1869 H   0  0  0  0  0  0
    5.3735   -0.9108   -1.1980 H   0  0  0  0  0  0
    4.0521    0.2559   -1.3135 H   0  0  0  0  0  0
    3.7524   -3.5163   -0.8124 H   0  0  0  0  0  0
    3.6139   -3.4299    0.9501 H   0  0  0  0  0  0
    5.1465   -3.0242    0.1597 H   0  0  0  0  0  0
  1  2  1  0  0  0
  1 10  1  0  0  0
  1 11  1  0  0  0
  1 12  1  0  0  0
  2  3  1  0  0  0
  2 13  1  0  0  0
  2 14  1  0  0  0
  3  4  1  0  0  0
  3 15  1  0  0  0
  3 16  1  0  0  0
  4  5  1  0  0  0
  4 17  1  0  0  0
  4 18  1  0  0  0
  5  6  1  0  0  0
  5 19  1  0  0  0
  5 20  1  0  0  0
  6  7  1  0  0  0
  6 21  1  0  0  0
  6 22  1  0  0  0
  7  8  1  0  0  0
  7  9  1  0  0  0
  7 23  1  0  0  0
  8 24  1  0  0  0
  8 25  1  0  0  0
  8 26  1  0  0  0
  9 27  1  0  0  0
  9 28  1  0  0  0
  9 29  1  0  0  0
M  END
>  <i_m_Spin_multiplicity> (1)
1

>  <s_j_Task> (1)
Single Point

>  <s_j_QM_Method> (1)
DFT(b3lyp-d3)

>  <s_j_QM_Basis> (1)
cc-pvtz(-f)

>  <i_j_Number_of_canonical_orbitals> (1)
384

>  <i_j_Geometry_convergence_category> (1)
1

>  <r_j_Gas_Phase_Energy> (1)
-355.171268669187

>  <r_j_Final_Energy> (1)
-355.171268669187

>  <r_j_HOMO> (1)
-0.300223404647958

>  <r_j_LUMO> (1)
0.0258446693562618

>  <r_j_Polarizability> (1)
112.615767368119

>  <r_j_QM_Dipole_(debye)> (1)
0.0865802381113266

>  <r_j_QM_Dipole_X_(debye)> (1)
-0.0114584429249645

>  <r_j_QM_Dipole_Y_(debye)> (1)
0.0263656996091

>  <r_j_QM_Dipole_Z_(debye)> (1)
0.0816681798577148

>  <r_j_Lowest_Frequency_(cm-1)> (1)
70.414527605498

>  <r_j_Highest_Frequency_(cm-1)> (1)
3054.55649573198

>  <r_j_2nd_Lowest_Frequency_(cm-1)> (1)
91.59838950515

>  <i_j_Num_Negative_Frequencies> (1)
0

>  <r_j_Zero_Point_Energy_(kcal/mol)> (1)
171.751758385972

>  <r_j_Entropy_(cal/mol/K)_298.15K_1.00E+00atm> (1)
102.810704879187

>  <r_j_Enthalpy_(kcal/mol)_298.15K_1.00E+00atm> (1)
7.80349356994308

>  <r_j_Free_Energy_(kcal/mol)_298.15K_1.00E+00atm> (1)
-22.8495180897866

>  <r_j_Internal_Energy_(kcal/mol)_298.15K_1.00E+00atm> (1)
7.2110079811158

>  <r_j_Heat_Capacity_(cal/mol/K)_298.15K_1.00E+00atm> (1)
43.3868654945993

>  <r_j_ln(Q)_298.15K_1.00E+00atm> (1)
38.5655255092589

>  <r_j_Total_Internal_Energy_(au)_298.15K_1.00E+00atm> (1)
-354.886073345573

>  <r_j_Total_Enthalpy_(au)_298.15K_1.00E+00atm> (1)
-354.885129159681

>  <r_j_Total_Free_Energy_(au)_298.15K_1.00E+00atm> (1)
-354.933977843446

>  <r_lp_tautomer_probability> (1)
1

>  <r_epik_Ionization_Penalty> (1)
  0.0000

>  <r_epik_Ionization_Penalty_Charging> (1)
  0.0000

>  <r_epik_Ionization_Penalty_Neutral> (1)
  0.0000

>  <r_epik_State_Penalty> (1)
  0.0000

>  <r_epik_Charging_Adjusted_Penalty> (1)
0

>  <i_epik_Tot_Q> (1)
0

>  <i_epik_Tot_abs_Q> (1)
0

>  <s_lp_Force_Field> (1)
S-OPLS

>  <r_lp_Energy> (1)
3.902295

>  <b_lp_Chiralities_Consistent> (1)
1

$$$$
