186252_1,2-diethyl-1-methylcyclohexane
                    3D
 Schrodinger Suite 2021-3.
 33 33  0  0  1  0            999 V2000
   -0.5922    1.5194   -0.1967 C   0  0  0  0  0  0
   -0.0694    0.1149    0.1310 C   0  0  0  0  0  0
    1.4708   -0.0012    0.1165 C   0  0  0  0  0  0
    2.0873    0.7570    1.3139 C   0  0  0  0  0  0
    3.6203    0.7180    1.3282 C   0  0  0  0  0  0
    4.1384   -0.7227    1.2567 C   0  0  0  0  0  0
    3.5500   -1.4359    0.0350 C   0  0  0  0  0  0
    1.9991   -1.4765    0.0116 C   0  0  0  0  0  0
    1.5802   -2.0895   -1.3416 C   0  0  0  0  0  0
    1.4270   -2.3401    1.1714 C   0  0  0  0  0  0
    2.0016   -3.7555    1.3120 C   0  0  0  0  0  0
   -1.6871    1.5351   -0.2157 H   0  0  0  0  0  0
   -0.2375    1.8496   -1.1801 H   0  0  0  0  0  0
   -0.2683    2.2627    0.5383 H   0  0  0  0  0  0
   -0.4487   -0.1912    1.1145 H   0  0  0  0  0  0
   -0.5013   -0.5863   -0.5909 H   0  0  0  0  0  0
    1.8262    0.5039   -0.7967 H   0  0  0  0  0  0
    1.7495    1.7991    1.2984 H   0  0  0  0  0  0
    1.7043    0.3313    2.2514 H   0  0  0  0  0  0
    4.0025    1.2765    0.4615 H   0  0  0  0  0  0
    4.0034    1.2266    2.2211 H   0  0  0  0  0  0
    5.2339   -0.7346    1.2057 H   0  0  0  0  0  0
    3.8651   -1.2600    2.1748 H   0  0  0  0  0  0
    3.8880   -0.9106   -0.8701 H   0  0  0  0  0  0
    3.9474   -2.4541   -0.0446 H   0  0  0  0  0  0
    2.0726   -3.0533   -1.5058 H   0  0  0  0  0  0
    1.8662   -1.4326   -2.1711 H   0  0  0  0  0  0
    0.5016   -2.2603   -1.4062 H   0  0  0  0  0  0
    1.5673   -1.8189    2.1246 H   0  0  0  0  0  0
    0.3419   -2.4170    1.0337 H   0  0  0  0  0  0
    1.4714   -4.3040    2.0976 H   0  0  0  0  0  0
    3.0614   -3.7407    1.5848 H   0  0  0  0  0  0
    1.9040   -4.3329    0.3873 H   0  0  0  0  0  0
  1  2  1  0  0  0
  1 12  1  0  0  0
  1 13  1  0  0  0
  1 14  1  0  0  0
  2  3  1  0  0  0
  2 15  1  0  0  0
  2 16  1  0  0  0
  3  8  1  0  0  0
  3  4  1  0  0  0
  3 17  1  0  0  0
  4  5  1  0  0  0
  4 18  1  0  0  0
  4 19  1  0  0  0
  5  6  1  0  0  0
  5 20  1  0  0  0
  5 21  1  0  0  0
  6  7  1  0  0  0
  6 22  1  0  0  0
  6 23  1  0  0  0
  7  8  1  0  0  0
  7 24  1  0  0  0
  7 25  1  0  0  0
  8  9  1  0  0  0
  8 10  1  0  0  0
  9 26  1  0  0  0
  9 27  1  0  0  0
  9 28  1  0  0  0
 10 11  1  0  0  0
 10 29  1  0  0  0
 10 30  1  0  0  0
 11 31  1  0  0  0
 11 32  1  0  0  0
 11 33  1  0  0  0
M  END
>  <i_m_Spin_multiplicity> (1)
1

>  <s_j_Task> (1)
Single Point

>  <s_j_QM_Method> (1)
DFT(b3lyp-d3)

>  <s_j_QM_Basis> (1)
cc-pvtz(-f)

>  <i_j_Number_of_canonical_orbitals> (1)
446

>  <i_j_Geometry_convergence_category> (1)
0

>  <r_j_Gas_Phase_Energy> (1)
-432.616725408919

>  <r_j_Final_Energy> (1)
-432.616725408919

>  <r_j_HOMO> (1)
-0.290739339612322

>  <r_j_LUMO> (1)
0.0160135383019824

>  <r_j_Polarizability> (1)
127.623967936998

>  <r_j_QM_Dipole_(debye)> (1)
0.0810188083805139

>  <r_j_QM_Dipole_X_(debye)> (1)
-0.0177097727371369

>  <r_j_QM_Dipole_Y_(debye)> (1)
0.0102440352381497

>  <r_j_QM_Dipole_Z_(debye)> (1)
0.0783930545586593

>  <r_j_Lowest_Frequency_(cm-1)> (1)
111.571999653396

>  <r_j_Highest_Frequency_(cm-1)> (1)
3058.73410943493

>  <r_j_2nd_Lowest_Frequency_(cm-1)> (1)
114.039970856513

>  <i_j_Num_Negative_Frequencies> (1)
0

>  <r_j_Zero_Point_Energy_(kcal/mol)> (1)
195.047708436063

>  <r_j_Entropy_(cal/mol/K)_298.15K_1.00E+00atm> (1)
102.650981380383

>  <r_j_Enthalpy_(kcal/mol)_298.15K_1.00E+00atm> (1)
8.00581657542415

>  <r_j_Free_Energy_(kcal/mol)_298.15K_1.00E+00atm> (1)
-22.5995735231369

>  <r_j_Internal_Energy_(kcal/mol)_298.15K_1.00E+00atm> (1)
7.41333098659687

>  <r_j_Heat_Capacity_(cal/mol/K)_298.15K_1.00E+00atm> (1)
48.5921861439096

>  <r_j_ln(Q)_298.15K_1.00E+00atm> (1)
38.1436678786888

>  <r_j_Total_Internal_Energy_(au)_298.15K_1.00E+00atm> (1)
-432.294083203339

>  <r_j_Total_Enthalpy_(au)_298.15K_1.00E+00atm> (1)
-432.293139017447

>  <r_j_Total_Free_Energy_(au)_298.15K_1.00E+00atm> (1)
-432.341911811424

>  <r_lp_tautomer_probability> (1)
1

>  <r_epik_Ionization_Penalty> (1)
  0.0000

>  <r_epik_Ionization_Penalty_Charging> (1)
  0.0000

>  <r_epik_Ionization_Penalty_Neutral> (1)
  0.0000

>  <r_epik_State_Penalty> (1)
  0.0000

>  <r_epik_Charging_Adjusted_Penalty> (1)
0

>  <i_epik_Tot_Q> (1)
0

>  <i_epik_Tot_abs_Q> (1)
0

>  <s_lp_Force_Field> (1)
S-OPLS

>  <r_lp_Energy> (1)
19.8247

>  <b_lp_Chiralities_Consistent> (1)
1

$$$$
