187321_Methyl pentylcyclohexane
                    3D
 Schrodinger Suite 2021-3.
 36 36  0  0  1  0            999 V2000
   -2.2914    1.4093    0.0089 C   0  0  0  0  0  0
   -0.7607    1.4583    0.0177 C   0  0  0  0  0  0
   -0.1152    0.0678   -0.0041 C   0  0  0  0  0  0
    1.4186    0.1097    0.0046 C   0  0  0  0  0  0
    2.0399   -1.2937   -0.0171 C   0  0  0  0  0  0
    3.5877   -1.4114   -0.0072 C   0  0  0  0  0  0
    4.1776   -0.7652    1.2727 C   0  0  0  0  0  0
    5.7150   -0.7289    1.2926 C   0  0  0  0  0  0
    6.2683   -0.0274    0.0430 C   0  0  0  0  0  0
    5.7353   -0.6765   -1.2433 C   0  0  0  0  0  0
    4.1978   -0.7130   -1.2494 C   0  0  0  0  0  0
    3.9152   -2.9205   -0.0357 C   0  0  0  0  0  0
   -2.7273    2.4138    0.0252 H   0  0  0  0  0  0
   -2.6732    0.8657    0.8809 H   0  0  0  0  0  0
   -2.6641    0.8982   -0.8863 H   0  0  0  0  0  0
   -0.4058    2.0348   -0.8476 H   0  0  0  0  0  0
   -0.4148    2.0030    0.9069 H   0  0  0  0  0  0
   -0.4698   -0.5103    0.8614 H   0  0  0  0  0  0
   -0.4607   -0.4787   -0.8936 H   0  0  0  0  0  0
    1.7598    0.6914   -0.8609 H   0  0  0  0  0  0
    1.7507    0.6604    0.8937 H   0  0  0  0  0  0
    1.6531   -1.8552    0.8459 H   0  0  0  0  0  0
    1.6667   -1.8216   -0.9070 H   0  0  0  0  0  0
    3.8168    0.2683    1.3485 H   0  0  0  0  0  0
    3.7961   -1.2931    2.1569 H   0  0  0  0  0  0
    6.0587   -0.2155    2.1987 H   0  0  0  0  0  0
    6.1178   -1.7483    1.3477 H   0  0  0  0  0  0
    5.9632    1.0291    0.0623 H   0  0  0  0  0  0
    7.3648   -0.0372    0.0516 H   0  0  0  0  0  0
    6.0932   -0.1262   -2.1218 H   0  0  0  0  0  0
    6.1393   -1.6929   -1.3341 H   0  0  0  0  0  0
    3.8304   -1.2032   -2.1608 H   0  0  0  0  0  0
    3.8382    0.3230   -1.2876 H   0  0  0  0  0  0
    4.9891   -3.1217   -0.0304 H   0  0  0  0  0  0
    3.4979   -3.3890   -0.9344 H   0  0  0  0  0  0
    3.4824   -3.4256    0.8355 H   0  0  0  0  0  0
  1  2  1  0  0  0
  1 13  1  0  0  0
  1 14  1  0  0  0
  1 15  1  0  0  0
  2  3  1  0  0  0
  2 16  1  0  0  0
  2 17  1  0  0  0
  3  4  1  0  0  0
  3 18  1  0  0  0
  3 19  1  0  0  0
  4  5  1  0  0  0
  4 20  1  0  0  0
  4 21  1  0  0  0
  5  6  1  0  0  0
  5 22  1  0  0  0
  5 23  1  0  0  0
  6 11  1  0  0  0
  6  7  1  0  0  0
  6 12  1  0  0  0
  7  8  1  0  0  0
  7 24  1  0  0  0
  7 25  1  0  0  0
  8  9  1  0  0  0
  8 26  1  0  0  0
  8 27  1  0  0  0
  9 10  1  0  0  0
  9 28  1  0  0  0
  9 29  1  0  0  0
 10 11  1  0  0  0
 10 30  1  0  0  0
 10 31  1  0  0  0
 11 32  1  0  0  0
 11 33  1  0  0  0
 12 34  1  0  0  0
 12 35  1  0  0  0
 12 36  1  0  0  0
M  END
>  <i_m_Spin_multiplicity> (1)
1

>  <s_j_Task> (1)
Single Point

>  <s_j_QM_Method> (1)
DFT(b3lyp-d3)

>  <s_j_QM_Basis> (1)
cc-pvtz(-f)

>  <i_j_Number_of_canonical_orbitals> (1)
486

>  <i_j_Geometry_convergence_category> (1)
3

>  <r_j_Gas_Phase_Energy> (1)
-471.948040622144

>  <r_j_Final_Energy> (1)
-471.948040622144

>  <r_j_HOMO> (1)
-0.293759019019485

>  <r_j_LUMO> (1)
0.0230152491181667

>  <r_j_Polarizability> (1)
141.901962404489

>  <r_j_QM_Dipole_(debye)> (1)
0.146699795665123

>  <r_j_QM_Dipole_X_(debye)> (1)
0.0973932430621954

>  <r_j_QM_Dipole_Y_(debye)> (1)
0.109677613697423

>  <r_j_QM_Dipole_Z_(debye)> (1)
0.00249144690005918

>  <r_j_Lowest_Frequency_(cm-1)> (1)
76.3455457760492

>  <r_j_Highest_Frequency_(cm-1)> (1)
3066.66548293531

>  <r_j_2nd_Lowest_Frequency_(cm-1)> (1)
89.2088400274612

>  <i_j_Num_Negative_Frequencies> (1)
0

>  <r_j_Zero_Point_Energy_(kcal/mol)> (1)
212.998203162857

>  <r_j_Entropy_(cal/mol/K)_298.15K_1.00E+00atm> (1)
109.544124288113

>  <r_j_Enthalpy_(kcal/mol)_298.15K_1.00E+00atm> (1)
8.75996788358713

>  <r_j_Free_Energy_(kcal/mol)_298.15K_1.00E+00atm> (1)
-23.9006127729137

>  <r_j_Internal_Energy_(kcal/mol)_298.15K_1.00E+00atm> (1)
8.16748229475986

>  <r_j_Heat_Capacity_(cal/mol/K)_298.15K_1.00E+00atm> (1)
52.6884693177279

>  <r_j_ln(Q)_298.15K_1.00E+00atm> (1)
40.3395681238779

>  <r_j_Total_Internal_Energy_(au)_298.15K_1.00E+00atm> (1)
-471.59559066556

>  <r_j_Total_Enthalpy_(au)_298.15K_1.00E+00atm> (1)
-471.594646479668

>  <r_j_Total_Free_Energy_(au)_298.15K_1.00E+00atm> (1)
-471.646694428293

>  <r_lp_tautomer_probability> (1)
1

>  <r_epik_Ionization_Penalty> (1)
  0.0000

>  <r_epik_Ionization_Penalty_Charging> (1)
  0.0000

>  <r_epik_Ionization_Penalty_Neutral> (1)
  0.0000

>  <r_epik_State_Penalty> (1)
  0.0000

>  <r_epik_Charging_Adjusted_Penalty> (1)
0

>  <i_epik_Tot_Q> (1)
0

>  <i_epik_Tot_abs_Q> (1)
0

>  <s_lp_Force_Field> (1)
S-OPLS

>  <r_lp_Energy> (1)
18.0937

>  <b_lp_Chiralities_Consistent> (1)
1

$$$$
