18782_2-methylchrysene
                    3D
 Schrodinger Suite 2021-3.
 33 36  0  0  1  0            999 V2000
   -0.0299    0.0017    0.0002 C   0  0  0  0  0  0
    1.4785    0.0226    0.0001 C   0  0  0  0  0  0
    2.1935    1.2030    0.0000 C   0  0  0  0  0  0
    3.6095    1.2195    0.0000 C   0  0  0  0  0  0
    4.3388   -0.0042   -0.0001 C   0  0  0  0  0  0
    3.5843   -1.2056    0.0000 C   0  0  0  0  0  0
    2.2065   -1.1918    0.0000 C   0  0  0  0  0  0
    5.7894    0.0308   -0.0001 C   0  0  0  0  0  0
    6.4643    1.2772   -0.0001 C   0  0  0  0  0  0
    5.6881    2.4782   -0.0001 C   0  0  0  0  0  0
    4.3257    2.4521   -0.0001 C   0  0  0  0  0  0
    7.9156    1.3171    0.0000 C   0  0  0  0  0  0
    8.6616    2.5235    0.0000 C   0  0  0  0  0  0
   10.0420    2.5180    0.0001 C   0  0  0  0  0  0
   10.7539    1.3020    0.0002 C   0  0  0  0  0  0
   10.0615    0.1110    0.0001 C   0  0  0  0  0  0
    8.6456    0.0917    0.0000 C   0  0  0  0  0  0
    7.9296   -1.1420   -0.0001 C   0  0  0  0  0  0
    6.5672   -1.1707   -0.0001 C   0  0  0  0  0  0
   -0.4469    1.0126    0.0002 H   0  0  0  0  0  0
   -0.4176   -0.5230    0.8813 H   0  0  0  0  0  0
   -0.4177   -0.5229   -0.8810 H   0  0  0  0  0  0
    1.6670    2.1549    0.0001 H   0  0  0  0  0  0
    4.0884   -2.1646   -0.0001 H   0  0  0  0  0  0
    1.6627   -2.1333    0.0000 H   0  0  0  0  0  0
    6.1881    3.4387   -0.0001 H   0  0  0  0  0  0
    3.7621    3.3810   -0.0001 H   0  0  0  0  0  0
    8.1507    3.4790    0.0000 H   0  0  0  0  0  0
   10.5832    3.4597    0.0001 H   0  0  0  0  0  0
   11.8398    1.3065    0.0002 H   0  0  0  0  0  0
   10.5945   -0.8364    0.0001 H   0  0  0  0  0  0
    8.4953   -2.0697   -0.0001 H   0  0  0  0  0  0
    6.0682   -2.1321   -0.0001 H   0  0  0  0  0  0
  1  2  1  0  0  0
  1 20  1  0  0  0
  1 21  1  0  0  0
  1 22  1  0  0  0
  2  7  1  0  0  0
  2  3  2  0  0  0
  3  4  1  0  0  0
  3 23  1  0  0  0
  4 11  1  0  0  0
  4  5  2  0  0  0
  5  6  1  0  0  0
  5  8  1  0  0  0
  6  7  2  0  0  0
  6 24  1  0  0  0
  7 25  1  0  0  0
  8 19  1  0  0  0
  8  9  2  0  0  0
  9 10  1  0  0  0
  9 12  1  0  0  0
 10 11  2  0  0  0
 10 26  1  0  0  0
 11 27  1  0  0  0
 12 17  1  0  0  0
 12 13  2  0  0  0
 13 14  1  0  0  0
 13 28  1  0  0  0
 14 15  2  0  0  0
 14 29  1  0  0  0
 15 16  1  0  0  0
 15 30  1  0  0  0
 16 17  2  0  0  0
 16 31  1  0  0  0
 17 18  1  0  0  0
 18 19  2  0  0  0
 18 32  1  0  0  0
 19 33  1  0  0  0
M  END
>  <i_m_Spin_multiplicity> (1)
1

>  <s_j_Task> (1)
Single Point

>  <s_j_QM_Method> (1)
DFT(b3lyp-d3)

>  <s_j_QM_Basis> (1)
cc-pvtz(-f)

>  <i_j_Number_of_canonical_orbitals> (1)
544

>  <i_j_Geometry_convergence_category> (1)
3

>  <r_j_Gas_Phase_Energy> (1)
-732.741246019637

>  <r_j_Final_Energy> (1)
-732.741246019637

>  <r_j_HOMO> (1)
-0.207052331807956

>  <r_j_LUMO> (1)
-0.0519680593758773

>  <r_j_Polarizability> (1)
239.123786963834

>  <r_j_QM_Dipole_(debye)> (1)
0.591495000854189

>  <r_j_QM_Dipole_X_(debye)> (1)
-0.57992946506687

>  <r_j_QM_Dipole_Y_(debye)> (1)
-0.116396504320774

>  <r_j_QM_Dipole_Z_(debye)> (1)
7.32438112985875e-05

>  <r_j_Lowest_Frequency_(cm-1)> (1)
61.8104169341665

>  <r_j_Highest_Frequency_(cm-1)> (1)
3172.50470100732

>  <r_j_2nd_Lowest_Frequency_(cm-1)> (1)
94.7923587265729

>  <i_j_Num_Negative_Frequencies> (1)
0

>  <r_j_Zero_Point_Energy_(kcal/mol)> (1)
168.058939996493

>  <r_j_Entropy_(cal/mol/K)_298.15K_1.00E+00atm> (1)
112.33247612563

>  <r_j_Enthalpy_(kcal/mol)_298.15K_1.00E+00atm> (1)
8.98352516311301

>  <r_j_Free_Energy_(kcal/mol)_298.15K_1.00E+00atm> (1)
-24.5084025937435

>  <r_j_Internal_Energy_(kcal/mol)_298.15K_1.00E+00atm> (1)
8.39103957428574

>  <r_j_Heat_Capacity_(cal/mol/K)_298.15K_1.00E+00atm> (1)
57.5385828128815

>  <r_j_ln(Q)_298.15K_1.00E+00atm> (1)
41.3653986795759

>  <r_j_Total_Internal_Energy_(au)_298.15K_1.00E+00atm> (1)
-732.460055076701

>  <r_j_Total_Enthalpy_(au)_298.15K_1.00E+00atm> (1)
-732.459110890808

>  <r_j_Total_Free_Energy_(au)_298.15K_1.00E+00atm> (1)
-732.512483675377

>  <r_lp_tautomer_probability> (1)
1

>  <r_epik_Ionization_Penalty> (1)
  0.0000

>  <r_epik_Ionization_Penalty_Charging> (1)
  0.0000

>  <r_epik_Ionization_Penalty_Neutral> (1)
  0.0000

>  <r_epik_State_Penalty> (1)
  0.0000

>  <r_epik_Charging_Adjusted_Penalty> (1)
0

>  <i_epik_Tot_Q> (1)
0

>  <i_epik_Tot_abs_Q> (1)
0

>  <s_lp_Force_Field> (1)
S-OPLS

>  <r_lp_Energy> (1)
41.5168

>  <b_lp_Chiralities_Consistent> (1)
1

$$$$
