187815_1,2,3-trimethyl-4-ethylbenzene
                    3D
 Schrodinger Suite 2021-3.
 27 27  0  0  1  0            999 V2000
   -0.5670    1.4999    0.1116 C   0  0  0  0  0  0
   -0.0247    0.0762   -0.1042 C   0  0  0  0  0  0
    1.4891    0.0061   -0.0217 C   0  0  0  0  0  0
    2.1891    0.0038    1.2022 C   0  0  0  0  0  0
    3.6026   -0.0184    1.2122 C   0  0  0  0  0  0
    4.3223   -0.0398    0.0014 C   0  0  0  0  0  0
    3.6112   -0.0343   -1.2014 C   0  0  0  0  0  0
    2.2225   -0.0109   -1.2116 C   0  0  0  0  0  0
    5.8352   -0.0720   -0.0350 C   0  0  0  0  0  0
    4.3250   -0.0223    2.5434 C   0  0  0  0  0  0
    1.4573    0.0269    2.5286 C   0  0  0  0  0  0
   -1.6590    1.5256    0.0279 H   0  0  0  0  0  0
   -0.1505    2.1851   -0.6338 H   0  0  0  0  0  0
   -0.2931    1.8836    1.0994 H   0  0  0  0  0  0
   -0.4872   -0.6065    0.6179 H   0  0  0  0  0  0
   -0.3398   -0.2780   -1.0923 H   0  0  0  0  0  0
    4.1553   -0.0521   -2.1425 H   0  0  0  0  0  0
    1.6931   -0.0077   -2.1615 H   0  0  0  0  0  0
    6.1970   -0.0981   -1.0665 H   0  0  0  0  0  0
    6.2388   -0.9529    0.4773 H   0  0  0  0  0  0
    6.2763    0.8093    0.4450 H   0  0  0  0  0  0
    5.4076    0.0399    2.4327 H   0  0  0  0  0  0
    4.1077   -0.9343    3.1137 H   0  0  0  0  0  0
    4.0116    0.8194    3.1720 H   0  0  0  0  0  0
    1.6630    0.9527    3.0805 H   0  0  0  0  0  0
    1.7757   -0.7985    3.1756 H   0  0  0  0  0  0
    0.3761   -0.0472    2.4144 H   0  0  0  0  0  0
  1  2  1  0  0  0
  1 12  1  0  0  0
  1 13  1  0  0  0
  1 14  1  0  0  0
  2  3  1  0  0  0
  2 15  1  0  0  0
  2 16  1  0  0  0
  3  8  1  0  0  0
  3  4  2  0  0  0
  4  5  1  0  0  0
  4 11  1  0  0  0
  5  6  2  0  0  0
  5 10  1  0  0  0
  6  7  1  0  0  0
  6  9  1  0  0  0
  7  8  2  0  0  0
  7 17  1  0  0  0
  8 18  1  0  0  0
  9 19  1  0  0  0
  9 20  1  0  0  0
  9 21  1  0  0  0
 10 22  1  0  0  0
 10 23  1  0  0  0
 10 24  1  0  0  0
 11 25  1  0  0  0
 11 26  1  0  0  0
 11 27  1  0  0  0
M  END
>  <i_m_Spin_multiplicity> (1)
1

>  <s_j_Task> (1)
Single Point

>  <s_j_QM_Method> (1)
DFT(b3lyp-d3)

>  <s_j_QM_Basis> (1)
cc-pvtz(-f)

>  <i_j_Number_of_canonical_orbitals> (1)
389

>  <i_j_Geometry_convergence_category> (1)
0

>  <r_j_Gas_Phase_Energy> (1)
-428.985015356704

>  <r_j_Final_Energy> (1)
-428.985015356704

>  <r_j_HOMO> (1)
-0.229204504479007

>  <r_j_LUMO> (1)
-0.00588764130075982

>  <r_j_Polarizability> (1)
128.832514528418

>  <r_j_QM_Dipole_(debye)> (1)
0.583765389167429

>  <r_j_QM_Dipole_X_(debye)> (1)
0.0533916850474014

>  <r_j_QM_Dipole_Y_(debye)> (1)
0.0219491658553904

>  <r_j_QM_Dipole_Z_(debye)> (1)
0.580904115733269

>  <r_j_Lowest_Frequency_(cm-1)> (1)
103.901217880343

>  <r_j_Highest_Frequency_(cm-1)> (1)
3124.85478865262

>  <r_j_2nd_Lowest_Frequency_(cm-1)> (1)
114.022981098398

>  <i_j_Num_Negative_Frequencies> (1)
0

>  <r_j_Zero_Point_Energy_(kcal/mol)> (1)
150.311895327363

>  <r_j_Entropy_(cal/mol/K)_298.15K_1.00E+00atm> (1)
100.557362293598

>  <r_j_Enthalpy_(kcal/mol)_298.15K_1.00E+00atm> (1)
7.62239676029717

>  <r_j_Free_Energy_(kcal/mol)_298.15K_1.00E+00atm> (1)
-22.3587808075391

>  <r_j_Internal_Energy_(kcal/mol)_298.15K_1.00E+00atm> (1)
7.02991117146989

>  <r_j_Heat_Capacity_(cal/mol/K)_298.15K_1.00E+00atm> (1)
44.6211117873472

>  <r_j_ln(Q)_298.15K_1.00E+00atm> (1)
37.7372567859323

>  <r_j_Total_Internal_Energy_(au)_298.15K_1.00E+00atm> (1)
-428.734275226043

>  <r_j_Total_Enthalpy_(au)_298.15K_1.00E+00atm> (1)
-428.733331040151

>  <r_j_Total_Free_Energy_(au)_298.15K_1.00E+00atm> (1)
-428.781109088135

>  <r_lp_tautomer_probability> (1)
1

>  <r_epik_Ionization_Penalty> (1)
  0.0000

>  <r_epik_Ionization_Penalty_Charging> (1)
  0.0000

>  <r_epik_Ionization_Penalty_Neutral> (1)
  0.0000

>  <r_epik_State_Penalty> (1)
  0.0000

>  <r_epik_Charging_Adjusted_Penalty> (1)
0

>  <i_epik_Tot_Q> (1)
0

>  <i_epik_Tot_abs_Q> (1)
0

>  <s_lp_Force_Field> (1)
S-OPLS

>  <r_lp_Energy> (1)
8.87628

>  <b_lp_Chiralities_Consistent> (1)
1

$$$$
