18827_1-Octen-3-ol
                    3D
 Schrodinger Suite 2021-3.
 25 24  0  0  1  0            999 V2000
   -2.7184    2.9754   -0.2637 C   0  0  0  0  0  0
   -2.1699    1.5563   -0.0872 C   0  0  0  0  0  0
   -0.6377    1.5050   -0.0633 C   0  0  0  0  0  0
   -0.0799    0.0865    0.1053 C   0  0  0  0  0  0
    1.4529    0.0490    0.1307 C   0  0  0  0  0  0
    2.0765   -1.3613    0.1614 C   0  0  0  0  0  0
    1.7613   -2.1113    1.4363 C   0  0  0  0  0  0
    2.6658   -2.7366    2.1886 C   0  0  0  0  0  0
    3.4762   -1.2937   -0.0987 O   0  0  0  0  0  0
   -3.8132    2.9852   -0.2772 H   0  0  0  0  0  0
   -2.3691    3.4187   -1.2033 H   0  0  0  0  0  0
   -2.3888    3.6297    0.5516 H   0  0  0  0  0  0
   -2.5608    1.1235    0.8438 H   0  0  0  0  0  0
   -2.5400    0.9150   -0.8988 H   0  0  0  0  0  0
   -0.2447    1.9420   -0.9922 H   0  0  0  0  0  0
   -0.2656    2.1419    0.7520 H   0  0  0  0  0  0
   -0.4862   -0.3467    1.0285 H   0  0  0  0  0  0
   -0.4456   -0.5461   -0.7161 H   0  0  0  0  0  0
    1.8471    0.5463   -0.7637 H   0  0  0  0  0  0
    1.8228    0.6159    0.9978 H   0  0  0  0  0  0
    1.6651   -1.9298   -0.6857 H   0  0  0  0  0  0
    0.7136   -2.1198    1.7330 H   0  0  0  0  0  0
    3.7115   -2.7687    1.8979 H   0  0  0  0  0  0
    2.3875   -3.2515    3.1027 H   0  0  0  0  0  0
    3.8719   -0.7833    0.6224 H   0  0  0  0  0  0
  1  2  1  0  0  0
  1 10  1  0  0  0
  1 11  1  0  0  0
  1 12  1  0  0  0
  2  3  1  0  0  0
  2 13  1  0  0  0
  2 14  1  0  0  0
  3  4  1  0  0  0
  3 15  1  0  0  0
  3 16  1  0  0  0
  4  5  1  0  0  0
  4 17  1  0  0  0
  4 18  1  0  0  0
  5  6  1  0  0  0
  5 19  1  0  0  0
  5 20  1  0  0  0
  6  7  1  0  0  0
  6  9  1  0  0  0
  6 21  1  0  0  0
  7  8  2  0  0  0
  7 22  1  0  0  0
  8 23  1  0  0  0
  8 24  1  0  0  0
  9 25  1  0  0  0
M  END
>  <i_m_Spin_multiplicity> (1)
1

>  <s_j_Task> (1)
Single Point

>  <s_j_QM_Method> (1)
DFT(b3lyp-d3)

>  <s_j_QM_Basis> (1)
cc-pvtz(-f)

>  <i_j_Number_of_canonical_orbitals> (1)
349

>  <i_j_Geometry_convergence_category> (1)
0

>  <r_j_Gas_Phase_Energy> (1)
-389.848174529319

>  <r_j_Final_Energy> (1)
-389.848174529319

>  <r_j_HOMO> (1)
-0.277418565108637

>  <r_j_LUMO> (1)
-0.0175818901896288

>  <r_j_Polarizability> (1)
102.69651854104

>  <r_j_QM_Dipole_(debye)> (1)
1.61546576327943

>  <r_j_QM_Dipole_X_(debye)> (1)
-1.03065390127301

>  <r_j_QM_Dipole_Y_(debye)> (1)
0.866628361156107

>  <r_j_QM_Dipole_Z_(debye)> (1)
0.892433443881738

>  <r_j_Lowest_Frequency_(cm-1)> (1)
76.35639753541

>  <r_j_Highest_Frequency_(cm-1)> (1)
3734.01880985534

>  <r_j_2nd_Lowest_Frequency_(cm-1)> (1)
107.016242842712

>  <i_j_Num_Negative_Frequencies> (1)
0

>  <r_j_Zero_Point_Energy_(kcal/mol)> (1)
142.434495483352

>  <r_j_Entropy_(cal/mol/K)_298.15K_1.00E+00atm> (1)
99.8652861990885

>  <r_j_Enthalpy_(kcal/mol)_298.15K_1.00E+00atm> (1)
7.33053400259861

>  <r_j_Free_Energy_(kcal/mol)_298.15K_1.00E+00atm> (1)
-22.4443010776596

>  <r_j_Internal_Energy_(kcal/mol)_298.15K_1.00E+00atm> (1)
6.73804841377134

>  <r_j_Heat_Capacity_(cal/mol/K)_298.15K_1.00E+00atm> (1)
40.2835944527853

>  <r_j_ln(Q)_298.15K_1.00E+00atm> (1)
37.8815983053434

>  <r_j_Total_Internal_Energy_(au)_298.15K_1.00E+00atm> (1)
-389.610452947369

>  <r_j_Total_Enthalpy_(au)_298.15K_1.00E+00atm> (1)
-389.609508761476

>  <r_j_Total_Free_Energy_(au)_298.15K_1.00E+00atm> (1)
-389.656957981773

>  <r_lp_tautomer_probability> (1)
1

>  <r_epik_Ionization_Penalty> (1)
  0.0000

>  <r_epik_Ionization_Penalty_Charging> (1)
  0.0000

>  <r_epik_Ionization_Penalty_Neutral> (1)
  0.0000

>  <r_epik_State_Penalty> (1)
  0.0000

>  <r_epik_Charging_Adjusted_Penalty> (1)
0

>  <i_epik_Tot_Q> (1)
0

>  <i_epik_Tot_abs_Q> (1)
0

>  <s_lp_Force_Field> (1)
S-OPLS

>  <r_lp_Energy> (1)
2.410108

>  <b_lp_Chiralities_Consistent> (1)
1

$$$$
