18848_3-methyl-1-hexene
                    3D
 Schrodinger Suite 2021-3.
 21 20  0  0  1  0            999 V2000
   -2.1314    1.4360   -0.0370 C   0  0  0  0  0  0
   -0.6001    1.4424   -0.0395 C   0  0  0  0  0  0
   -0.0012    0.0348    0.0529 C   0  0  0  0  0  0
    1.5429    0.0001    0.0360 C   0  0  0  0  0  0
    2.0521   -1.4518   -0.0241 C   0  0  0  0  0  0
    2.1180    0.7043    1.2389 C   0  0  0  0  0  0
    2.8963    1.7857    1.2119 C   0  0  0  0  0  0
   -2.5376    2.4506   -0.1046 H   0  0  0  0  0  0
   -2.5220    0.9814    0.8809 H   0  0  0  0  0  0
   -2.5271    0.8612   -0.8824 H   0  0  0  0  0  0
   -0.2342    1.9282   -0.9545 H   0  0  0  0  0  0
   -0.2278    2.0508    0.7933 H   0  0  0  0  0  0
   -0.3587   -0.4570    0.9700 H   0  0  0  0  0  0
   -0.3750   -0.5742   -0.7821 H   0  0  0  0  0  0
    1.8852    0.5255   -0.8671 H   0  0  0  0  0  0
    3.1448   -1.4860   -0.0670 H   0  0  0  0  0  0
    1.6566   -1.9702   -0.9045 H   0  0  0  0  0  0
    1.7339   -2.0123    0.8632 H   0  0  0  0  0  0
    1.8545    0.2613    2.2022 H   0  0  0  0  0  0
    3.1798    2.2582    0.2743 H   0  0  0  0  0  0
    3.2802    2.2387    2.1213 H   0  0  0  0  0  0
  1  2  1  0  0  0
  1  8  1  0  0  0
  1  9  1  0  0  0
  1 10  1  0  0  0
  2  3  1  0  0  0
  2 11  1  0  0  0
  2 12  1  0  0  0
  3  4  1  0  0  0
  3 13  1  0  0  0
  3 14  1  0  0  0
  4  5  1  0  0  0
  4  6  1  0  0  0
  4 15  1  0  0  0
  5 16  1  0  0  0
  5 17  1  0  0  0
  5 18  1  0  0  0
  6  7  2  0  0  0
  6 19  1  0  0  0
  7 20  1  0  0  0
  7 21  1  0  0  0
M  END
>  <i_m_Spin_multiplicity> (1)
1

>  <s_j_Task> (1)
Single Point

>  <s_j_QM_Method> (1)
DFT(b3lyp-d3)

>  <s_j_QM_Basis> (1)
cc-pvtz(-f)

>  <i_j_Number_of_canonical_orbitals> (1)
285

>  <i_j_Geometry_convergence_category> (1)
3

>  <r_j_Gas_Phase_Energy> (1)
-275.274838593495

>  <r_j_Final_Energy> (1)
-275.274838593495

>  <r_j_HOMO> (1)
-0.259838710443675

>  <r_j_LUMO> (1)
0.00705767418720596

>  <r_j_Polarizability> (1)
86.0857232537951

>  <r_j_QM_Dipole_(debye)> (1)
0.251624804433027

>  <r_j_QM_Dipole_X_(debye)> (1)
-0.128620256800639

>  <r_j_QM_Dipole_Y_(debye)> (1)
-0.162606034506879

>  <r_j_QM_Dipole_Z_(debye)> (1)
-0.142587339159003

>  <r_j_Lowest_Frequency_(cm-1)> (1)
111.265312916979

>  <r_j_Highest_Frequency_(cm-1)> (1)
3168.01388847162

>  <r_j_2nd_Lowest_Frequency_(cm-1)> (1)
133.971613421641

>  <i_j_Num_Negative_Frequencies> (1)
0

>  <r_j_Zero_Point_Energy_(kcal/mol)> (1)
121.213737782134

>  <r_j_Entropy_(cal/mol/K)_298.15K_1.00E+00atm> (1)
88.6942790763784

>  <r_j_Enthalpy_(kcal/mol)_298.15K_1.00E+00atm> (1)
5.99636044680116

>  <r_j_Free_Energy_(kcal/mol)_298.15K_1.00E+00atm> (1)
-20.4478388598211

>  <r_j_Internal_Energy_(kcal/mol)_298.15K_1.00E+00atm> (1)
5.40387485797388

>  <r_j_Heat_Capacity_(cal/mol/K)_298.15K_1.00E+00atm> (1)
32.1875593532459

>  <r_j_ln(Q)_298.15K_1.00E+00atm> (1)
34.5119598609886

>  <r_j_Total_Internal_Energy_(au)_298.15K_1.00E+00atm> (1)
-275.073060582655

>  <r_j_Total_Enthalpy_(au)_298.15K_1.00E+00atm> (1)
-275.072116396763

>  <r_j_Total_Free_Energy_(au)_298.15K_1.00E+00atm> (1)
-275.114257911068

>  <r_lp_tautomer_probability> (1)
1

>  <r_epik_Ionization_Penalty> (1)
  0.0000

>  <r_epik_Ionization_Penalty_Charging> (1)
  0.0000

>  <r_epik_Ionization_Penalty_Neutral> (1)
  0.0000

>  <r_epik_State_Penalty> (1)
  0.0000

>  <r_epik_Charging_Adjusted_Penalty> (1)
0

>  <i_epik_Tot_Q> (1)
0

>  <i_epik_Tot_abs_Q> (1)
0

>  <s_lp_Force_Field> (1)
S-OPLS

>  <r_lp_Energy> (1)
1.05123

>  <b_lp_Chiralities_Consistent> (1)
1

$$$$
