18849_5-methyl-cis-2-hexene
                    3D
 Schrodinger Suite 2021-3.
 21 20  0  0  1  0            999 V2000
   -1.4355    3.5363    1.2057 C   0  0  0  0  0  0
   -0.9684    2.1107    1.1357 C   0  0  0  0  0  0
   -0.4293    1.5268    0.0626 C   0  0  0  0  0  0
    0.0602    0.1050    0.0101 C   0  0  0  0  0  0
    1.6010   -0.0388   -0.0521 C   0  0  0  0  0  0
    2.1973    0.6509   -1.2868 C   0  0  0  0  0  0
    1.9975   -1.5207   -0.0139 C   0  0  0  0  0  0
   -0.8997    4.0917    1.9864 H   0  0  0  0  0  0
   -2.5024    3.5950    1.4569 H   0  0  0  0  0  0
   -1.2825    4.0577    0.2553 H   0  0  0  0  0  0
   -1.0889    1.5213    2.0467 H   0  0  0  0  0  0
   -0.3129    2.1170   -0.8473 H   0  0  0  0  0  0
   -0.3075   -0.4395    0.8889 H   0  0  0  0  0  0
   -0.3648   -0.4006   -0.8707 H   0  0  0  0  0  0
    2.0084    0.4520    0.8433 H   0  0  0  0  0  0
    1.7778    0.2269   -2.2080 H   0  0  0  0  0  0
    3.2837    0.5164   -1.3246 H   0  0  0  0  0  0
    1.9955    1.7263   -1.2894 H   0  0  0  0  0  0
    1.6054   -2.0505   -0.8911 H   0  0  0  0  0  0
    1.6036   -2.0185    0.8790 H   0  0  0  0  0  0
    3.0864   -1.6406   -0.0135 H   0  0  0  0  0  0
  1  2  1  0  0  0
  1  8  1  0  0  0
  1  9  1  0  0  0
  1 10  1  0  0  0
  2  3  2  0  0  0
  2 11  1  0  0  0
  3  4  1  0  0  0
  3 12  1  0  0  0
  4  5  1  0  0  0
  4 13  1  0  0  0
  4 14  1  0  0  0
  5  6  1  0  0  0
  5  7  1  0  0  0
  5 15  1  0  0  0
  6 16  1  0  0  0
  6 17  1  0  0  0
  6 18  1  0  0  0
  7 19  1  0  0  0
  7 20  1  0  0  0
  7 21  1  0  0  0
M  END
>  <i_m_Spin_multiplicity> (1)
1

>  <s_j_Task> (1)
Single Point

>  <s_j_QM_Method> (1)
DFT(b3lyp-d3)

>  <s_j_QM_Basis> (1)
cc-pvtz(-f)

>  <i_j_Number_of_canonical_orbitals> (1)
285

>  <i_j_Geometry_convergence_category> (1)
3

>  <r_j_Gas_Phase_Energy> (1)
-275.278642559953

>  <r_j_Final_Energy> (1)
-275.278642559953

>  <r_j_HOMO> (1)
-0.238284255451754

>  <r_j_LUMO> (1)
0.0198440106739895

>  <r_j_Polarizability> (1)
88.1073389758483

>  <r_j_QM_Dipole_(debye)> (1)
0.182633004653047

>  <r_j_QM_Dipole_X_(debye)> (1)
0.0385890736308941

>  <r_j_QM_Dipole_Y_(debye)> (1)
0.107546131274611

>  <r_j_QM_Dipole_Z_(debye)> (1)
0.142476410092245

>  <r_j_Lowest_Frequency_(cm-1)> (1)
101.922011194357

>  <r_j_Highest_Frequency_(cm-1)> (1)
3082.02316001799

>  <r_j_2nd_Lowest_Frequency_(cm-1)> (1)
109.890706223898

>  <i_j_Num_Negative_Frequencies> (1)
0

>  <r_j_Zero_Point_Energy_(kcal/mol)> (1)
121.03350373404

>  <r_j_Entropy_(cal/mol/K)_298.15K_1.00E+00atm> (1)
88.7913550394184

>  <r_j_Enthalpy_(kcal/mol)_298.15K_1.00E+00atm> (1)
6.02894333065985

>  <r_j_Free_Energy_(kcal/mol)_298.15K_1.00E+00atm> (1)
-20.4441991743427

>  <r_j_Internal_Energy_(kcal/mol)_298.15K_1.00E+00atm> (1)
5.43645774183257

>  <r_j_Heat_Capacity_(cal/mol/K)_298.15K_1.00E+00atm> (1)
32.4774463428516

>  <r_j_ln(Q)_298.15K_1.00E+00atm> (1)
34.5058167824953

>  <r_j_Total_Internal_Energy_(au)_298.15K_1.00E+00atm> (1)
-275.077099846222

>  <r_j_Total_Enthalpy_(au)_298.15K_1.00E+00atm> (1)
-275.07615566033

>  <r_j_Total_Free_Energy_(au)_298.15K_1.00E+00atm> (1)
-275.118343298558

>  <r_lp_tautomer_probability> (1)
1

>  <r_epik_Ionization_Penalty> (1)
  0.0000

>  <r_epik_Ionization_Penalty_Charging> (1)
  0.0000

>  <r_epik_Ionization_Penalty_Neutral> (1)
  0.0000

>  <r_epik_State_Penalty> (1)
  0.0000

>  <r_epik_Charging_Adjusted_Penalty> (1)
0

>  <i_epik_Tot_Q> (1)
0

>  <i_epik_Tot_abs_Q> (1)
0

>  <s_lp_Force_Field> (1)
S-OPLS

>  <r_lp_Energy> (1)
-2.051071

>  <b_lp_Chiralities_Consistent> (1)
1

$$$$
