18851_2,3-Dimethyl-1-pentene
                    3D
 Schrodinger Suite 2021-3.
 21 20  0  0  1  0            999 V2000
   -0.8536    1.2517    0.1611 C   0  0  0  0  0  0
   -0.0777   -0.0650    0.0665 C   0  0  0  0  0  0
    1.4521    0.1096    0.0400 C   0  0  0  0  0  0
    2.1470   -1.2420   -0.2275 C   0  0  0  0  0  0
    2.0507    0.7529    1.2886 C   0  0  0  0  0  0
    1.5549    0.5785    2.5178 C   0  0  0  0  0  0
    3.2939    1.5749    1.0505 C   0  0  0  0  0  0
   -1.9344    1.0767    0.1597 H   0  0  0  0  0  0
   -0.6207    1.9038   -0.6889 H   0  0  0  0  0  0
   -0.5979    1.7937    1.0759 H   0  0  0  0  0  0
   -0.3580   -0.7273    0.8958 H   0  0  0  0  0  0
   -0.3724   -0.5964   -0.8478 H   0  0  0  0  0  0
    1.6860    0.7722   -0.8076 H   0  0  0  0  0  0
    3.2361   -1.1385   -0.2652 H   0  0  0  0  0  0
    1.8173   -1.6698   -1.1806 H   0  0  0  0  0  0
    1.9080   -1.9541    0.5695 H   0  0  0  0  0  0
    0.6577   -0.0026    2.7061 H   0  0  0  0  0  0
    2.0351    1.0166    3.3882 H   0  0  0  0  0  0
    4.0531    0.9984    0.5068 H   0  0  0  0  0  0
    3.7402    1.9276    1.9844 H   0  0  0  0  0  0
    3.0643    2.4498    0.4284 H   0  0  0  0  0  0
  1  2  1  0  0  0
  1  8  1  0  0  0
  1  9  1  0  0  0
  1 10  1  0  0  0
  2  3  1  0  0  0
  2 11  1  0  0  0
  2 12  1  0  0  0
  3  4  1  0  0  0
  3  5  1  0  0  0
  3 13  1  0  0  0
  4 14  1  0  0  0
  4 15  1  0  0  0
  4 16  1  0  0  0
  5  6  2  0  0  0
  5  7  1  0  0  0
  6 17  1  0  0  0
  6 18  1  0  0  0
  7 19  1  0  0  0
  7 20  1  0  0  0
  7 21  1  0  0  0
M  END
>  <i_m_Spin_multiplicity> (1)
1

>  <s_j_Task> (1)
Single Point

>  <s_j_QM_Method> (1)
DFT(b3lyp-d3)

>  <s_j_QM_Basis> (1)
cc-pvtz(-f)

>  <i_j_Number_of_canonical_orbitals> (1)
284

>  <i_j_Geometry_convergence_category> (1)
3

>  <r_j_Gas_Phase_Energy> (1)
-275.27697036373

>  <r_j_Final_Energy> (1)
-275.27697036373

>  <r_j_HOMO> (1)
-0.252017720273355

>  <r_j_LUMO> (1)
0.00586886646098676

>  <r_j_Polarizability> (1)
84.5806371969036

>  <r_j_QM_Dipole_(debye)> (1)
0.504395385259666

>  <r_j_QM_Dipole_X_(debye)> (1)
0.215630805995342

>  <r_j_QM_Dipole_Y_(debye)> (1)
0.0175954164779222

>  <r_j_QM_Dipole_Z_(debye)> (1)
-0.455640715362461

>  <r_j_Lowest_Frequency_(cm-1)> (1)
85.3962232131287

>  <r_j_Highest_Frequency_(cm-1)> (1)
3172.00969366367

>  <r_j_2nd_Lowest_Frequency_(cm-1)> (1)
163.543012650186

>  <i_j_Num_Negative_Frequencies> (1)
0

>  <r_j_Zero_Point_Energy_(kcal/mol)> (1)
121.102623419597

>  <r_j_Entropy_(cal/mol/K)_298.15K_1.00E+00atm> (1)
87.4448039374887

>  <r_j_Enthalpy_(kcal/mol)_298.15K_1.00E+00atm> (1)
5.9458494555176

>  <r_j_Free_Energy_(kcal/mol)_298.15K_1.00E+00atm> (1)
-20.1258188384447

>  <r_j_Internal_Energy_(kcal/mol)_298.15K_1.00E+00atm> (1)
5.35336386669033

>  <r_j_Heat_Capacity_(cal/mol/K)_298.15K_1.00E+00atm> (1)
32.6376464598773

>  <r_j_ln(Q)_298.15K_1.00E+00atm> (1)
33.968452934493

>  <r_j_Total_Internal_Energy_(au)_298.15K_1.00E+00atm> (1)
-275.075449919288

>  <r_j_Total_Enthalpy_(au)_298.15K_1.00E+00atm> (1)
-275.074505733395

>  <r_j_Total_Free_Energy_(au)_298.15K_1.00E+00atm> (1)
-275.116053581739

>  <r_lp_tautomer_probability> (1)
1

>  <r_epik_Ionization_Penalty> (1)
  0.0000

>  <r_epik_Ionization_Penalty_Charging> (1)
  0.0000

>  <r_epik_Ionization_Penalty_Neutral> (1)
  0.0000

>  <r_epik_State_Penalty> (1)
  0.0000

>  <r_epik_Charging_Adjusted_Penalty> (1)
0

>  <i_epik_Tot_Q> (1)
0

>  <i_epik_Tot_abs_Q> (1)
0

>  <s_lp_Force_Field> (1)
S-OPLS

>  <r_lp_Energy> (1)
1.32155

>  <b_lp_Chiralities_Consistent> (1)
1

$$$$
