18852_3,3-dimethyl-1-pentene
                    3D
 Schrodinger Suite 2021-3.
 21 20  0  0  1  0            999 V2000
   -0.6810    1.3170    0.0547 C   0  0  0  0  0  0
    0.0069   -0.0538    0.0352 C   0  0  0  0  0  0
    1.5547   -0.0386    0.0156 C   0  0  0  0  0  0
    2.0546   -1.4908   -0.1761 C   0  0  0  0  0  0
    2.0757    0.8164   -1.1606 C   0  0  0  0  0  0
    2.1697    0.4830    1.3041 C   0  0  0  0  0  0
    1.5795    0.6753    2.4842 C   0  0  0  0  0  0
   -1.7629    1.2027    0.1782 H   0  0  0  0  0  0
   -0.5150    1.8623   -0.8794 H   0  0  0  0  0  0
   -0.3123    1.9413    0.8730 H   0  0  0  0  0  0
   -0.3245   -0.6455    0.8977 H   0  0  0  0  0  0
   -0.3321   -0.6080   -0.8499 H   0  0  0  0  0  0
    1.7208   -1.8901   -1.1411 H   0  0  0  0  0  0
    1.6726   -2.1411    0.6171 H   0  0  0  0  0  0
    3.1488   -1.5399   -0.1531 H   0  0  0  0  0  0
    1.6436    0.4734   -2.1077 H   0  0  0  0  0  0
    3.1657    0.7399   -1.2432 H   0  0  0  0  0  0
    1.8263    1.8737   -1.0350 H   0  0  0  0  0  0
    3.2412    0.6802    1.2294 H   0  0  0  0  0  0
    0.5206    0.4994    2.6470 H   0  0  0  0  0  0
    2.1458    1.0219    3.3437 H   0  0  0  0  0  0
  1  2  1  0  0  0
  1  8  1  0  0  0
  1  9  1  0  0  0
  1 10  1  0  0  0
  2  3  1  0  0  0
  2 11  1  0  0  0
  2 12  1  0  0  0
  3  4  1  0  0  0
  3  5  1  0  0  0
  3  6  1  0  0  0
  4 13  1  0  0  0
  4 14  1  0  0  0
  4 15  1  0  0  0
  5 16  1  0  0  0
  5 17  1  0  0  0
  5 18  1  0  0  0
  6  7  2  0  0  0
  6 19  1  0  0  0
  7 20  1  0  0  0
  7 21  1  0  0  0
M  END
>  <i_m_Spin_multiplicity> (1)
1

>  <s_j_Task> (1)
Single Point

>  <s_j_QM_Method> (1)
DFT(b3lyp-d3)

>  <s_j_QM_Basis> (1)
cc-pvtz(-f)

>  <i_j_Number_of_canonical_orbitals> (1)
284

>  <i_j_Geometry_convergence_category> (1)
0

>  <r_j_Gas_Phase_Energy> (1)
-275.272867531126

>  <r_j_Final_Energy> (1)
-275.272867531126

>  <r_j_HOMO> (1)
-0.264296950517704

>  <r_j_LUMO> (1)
0.00201278783869736

>  <r_j_Polarizability> (1)
84.3677423121682

>  <r_j_QM_Dipole_(debye)> (1)
0.328546207962886

>  <r_j_QM_Dipole_X_(debye)> (1)
0.0130804464466779

>  <r_j_QM_Dipole_Y_(debye)> (1)
-0.12570122479793

>  <r_j_QM_Dipole_Z_(debye)> (1)
-0.303266738650726

>  <r_j_Lowest_Frequency_(cm-1)> (1)
148.584517866329

>  <r_j_Highest_Frequency_(cm-1)> (1)
3174.29494773873

>  <r_j_2nd_Lowest_Frequency_(cm-1)> (1)
189.498580006924

>  <i_j_Num_Negative_Frequencies> (1)
0

>  <r_j_Zero_Point_Energy_(kcal/mol)> (1)
121.132785315902

>  <r_j_Entropy_(cal/mol/K)_298.15K_1.00E+00atm> (1)
85.8421189366499

>  <r_j_Enthalpy_(kcal/mol)_298.15K_1.00E+00atm> (1)
5.84104035070296

>  <r_j_Free_Energy_(kcal/mol)_298.15K_1.00E+00atm> (1)
-19.7527874102592

>  <r_j_Internal_Energy_(kcal/mol)_298.15K_1.00E+00atm> (1)
5.24855476187569

>  <r_j_Heat_Capacity_(cal/mol/K)_298.15K_1.00E+00atm> (1)
32.8750455095113

>  <r_j_ln(Q)_298.15K_1.00E+00atm> (1)
33.3388487125172

>  <r_j_Total_Internal_Energy_(au)_298.15K_1.00E+00atm> (1)
-275.071466044583

>  <r_j_Total_Enthalpy_(au)_298.15K_1.00E+00atm> (1)
-275.070521858691

>  <r_j_Total_Free_Energy_(au)_298.15K_1.00E+00atm> (1)
-275.111308219669

>  <r_lp_tautomer_probability> (1)
1

>  <r_epik_Ionization_Penalty> (1)
  0.0000

>  <r_epik_Ionization_Penalty_Charging> (1)
  0.0000

>  <r_epik_Ionization_Penalty_Neutral> (1)
  0.0000

>  <r_epik_State_Penalty> (1)
  0.0000

>  <r_epik_Charging_Adjusted_Penalty> (1)
0

>  <i_epik_Tot_Q> (1)
0

>  <i_epik_Tot_abs_Q> (1)
0

>  <s_lp_Force_Field> (1)
S-OPLS

>  <r_lp_Energy> (1)
6.60287

>  <b_lp_Chiralities_Consistent> (1)
1

$$$$
