19041_2,2,5-trimethylhexane
                    3D
 Schrodinger Suite 2021-3.
 29 28  0  0  1  0            999 V2000
   -0.7825   -0.7307   -1.2036 C   0  0  0  0  0  0
   -0.1258    0.0313   -0.0427 C   0  0  0  0  0  0
   -0.6596    1.4697    0.0227 C   0  0  0  0  0  0
    1.4136    0.0344   -0.1353 C   0  0  0  0  0  0
    2.0545   -1.3590   -0.0710 C   0  0  0  0  0  0
    3.6029   -1.4106    0.0129 C   0  0  0  0  0  0
    4.2391   -0.6997   -1.1968 C   0  0  0  0  0  0
    4.0307   -2.8916    0.0042 C   0  0  0  0  0  0
    4.1065   -0.7586    1.3148 C   0  0  0  0  0  0
   -0.4953   -0.2888   -2.1661 H   0  0  0  0  0  0
   -1.8747   -0.6885   -1.1319 H   0  0  0  0  0  0
   -0.4935   -1.7856   -1.2210 H   0  0  0  0  0  0
   -0.4022   -0.4753    0.8946 H   0  0  0  0  0  0
   -0.4075    2.0190   -0.8931 H   0  0  0  0  0  0
   -0.2300    2.0183    0.8681 H   0  0  0  0  0  0
   -1.7497    1.4865    0.1293 H   0  0  0  0  0  0
    1.7034    0.5380   -1.0676 H   0  0  0  0  0  0
    1.8022    0.6561    0.6810 H   0  0  0  0  0  0
    1.6470   -1.8943    0.7992 H   0  0  0  0  0  0
    1.7484   -1.9372   -0.9522 H   0  0  0  0  0  0
    5.3294   -0.8091   -1.1810 H   0  0  0  0  0  0
    4.0159    0.3718   -1.2007 H   0  0  0  0  0  0
    3.8737   -1.1232   -2.1395 H   0  0  0  0  0  0
    3.7071   -3.3916   -0.9160 H   0  0  0  0  0  0
    3.5939   -3.4336    0.8509 H   0  0  0  0  0  0
    5.1204   -2.9877    0.0716 H   0  0  0  0  0  0
    5.1940   -0.8609    1.4022 H   0  0  0  0  0  0
    3.6542   -1.2331    2.1932 H   0  0  0  0  0  0
    3.8746    0.3103    1.3530 H   0  0  0  0  0  0
  1  2  1  0  0  0
  1 10  1  0  0  0
  1 11  1  0  0  0
  1 12  1  0  0  0
  2  3  1  0  0  0
  2  4  1  0  0  0
  2 13  1  0  0  0
  3 14  1  0  0  0
  3 15  1  0  0  0
  3 16  1  0  0  0
  4  5  1  0  0  0
  4 17  1  0  0  0
  4 18  1  0  0  0
  5  6  1  0  0  0
  5 19  1  0  0  0
  5 20  1  0  0  0
  6  7  1  0  0  0
  6  8  1  0  0  0
  6  9  1  0  0  0
  7 21  1  0  0  0
  7 22  1  0  0  0
  7 23  1  0  0  0
  8 24  1  0  0  0
  8 25  1  0  0  0
  8 26  1  0  0  0
  9 27  1  0  0  0
  9 28  1  0  0  0
  9 29  1  0  0  0
M  END
>  <i_m_Spin_multiplicity> (1)
1

>  <s_j_Task> (1)
Single Point

>  <s_j_QM_Method> (1)
DFT(b3lyp-d3)

>  <s_j_QM_Basis> (1)
cc-pvtz(-f)

>  <i_j_Number_of_canonical_orbitals> (1)
383

>  <i_j_Geometry_convergence_category> (1)
0

>  <r_j_Gas_Phase_Energy> (1)
-355.172753861662

>  <r_j_Final_Energy> (1)
-355.172753861662

>  <r_j_HOMO> (1)
-0.30527804470972

>  <r_j_LUMO> (1)
0.0194247895045397

>  <r_j_Polarizability> (1)
110.708494705351

>  <r_j_QM_Dipole_(debye)> (1)
0.0860023929577115

>  <r_j_QM_Dipole_X_(debye)> (1)
-0.0286217940322781

>  <r_j_QM_Dipole_Y_(debye)> (1)
-0.0211384507501029

>  <r_j_QM_Dipole_Z_(debye)> (1)
0.0782966819265795

>  <r_j_Lowest_Frequency_(cm-1)> (1)
73.3529668954842

>  <r_j_Highest_Frequency_(cm-1)> (1)
3055.27265891797

>  <r_j_2nd_Lowest_Frequency_(cm-1)> (1)
104.392995703244

>  <i_j_Num_Negative_Frequencies> (1)
0

>  <r_j_Zero_Point_Energy_(kcal/mol)> (1)
171.239287875585

>  <r_j_Entropy_(cal/mol/K)_298.15K_1.00E+00atm> (1)
100.289697565301

>  <r_j_Enthalpy_(kcal/mol)_298.15K_1.00E+00atm> (1)
7.68865914641115

>  <r_j_Free_Energy_(kcal/mol)_298.15K_1.00E+00atm> (1)
-22.2127141826832

>  <r_j_Internal_Energy_(kcal/mol)_298.15K_1.00E+00atm> (1)
7.09617355758388

>  <r_j_Heat_Capacity_(cal/mol/K)_298.15K_1.00E+00atm> (1)
44.6870521023899

>  <r_j_ln(Q)_298.15K_1.00E+00atm> (1)
37.4907248404971

>  <r_j_Total_Internal_Energy_(au)_298.15K_1.00E+00atm> (1)
-354.8885582121

>  <r_j_Total_Enthalpy_(au)_298.15K_1.00E+00atm> (1)
-354.887614026208

>  <r_j_Total_Free_Energy_(au)_298.15K_1.00E+00atm> (1)
-354.935264898041

>  <r_lp_tautomer_probability> (1)
1

>  <r_epik_Ionization_Penalty> (1)
  0.0000

>  <r_epik_Ionization_Penalty_Charging> (1)
  0.0000

>  <r_epik_Ionization_Penalty_Neutral> (1)
  0.0000

>  <r_epik_State_Penalty> (1)
  0.0000

>  <r_epik_Charging_Adjusted_Penalty> (1)
0

>  <i_epik_Tot_Q> (1)
0

>  <i_epik_Tot_abs_Q> (1)
0

>  <s_lp_Force_Field> (1)
S-OPLS

>  <r_lp_Energy> (1)
5.93847

>  <b_lp_Chiralities_Consistent> (1)
1

$$$$
