19255_n-Dotriacontanoic acid
                    3D
 Schrodinger Suite 2021-3.
 97 96  0  0  1  0            999 V2000
   -7.2168    4.7508   11.4798 C   0  0  0  0  0  0
   -6.6594    5.1905   10.1228 C   0  0  0  0  0  0
   -7.2054    4.3657    8.9508 C   0  0  0  0  0  0
   -6.6507    4.8052    7.5912 C   0  0  0  0  0  0
   -7.1912    3.9897    6.4108 C   0  0  0  0  0  0
   -6.6279    4.4426    5.0589 C   0  0  0  0  0  0
   -7.1602    3.6397    3.8664 C   0  0  0  0  0  0
   -6.5853    4.1055    2.5234 C   0  0  0  0  0  0
   -7.1015    3.2986    1.3258 C   0  0  0  0  0  0
   -6.6198    3.8190   -0.0401 C   0  0  0  0  0  0
   -5.0932    3.8816   -0.2219 C   0  0  0  0  0  0
   -4.3811    2.5314   -0.0725 C   0  0  0  0  0  0
   -2.8663    2.6196   -0.2939 C   0  0  0  0  0  0
   -2.1562    1.2648   -0.1900 C   0  0  0  0  0  0
   -0.6338    1.3573   -0.3479 C   0  0  0  0  0  0
    0.0665   -0.0060   -0.3029 C   0  0  0  0  0  0
    1.5941    0.0875   -0.3953 C   0  0  0  0  0  0
    2.2890   -1.2794   -0.4025 C   0  0  0  0  0  0
    3.8194   -1.1849   -0.4195 C   0  0  0  0  0  0
    4.5098   -2.5551   -0.4620 C   0  0  0  0  0  0
    6.0463   -2.4945   -0.4665 C   0  0  0  0  0  0
    6.6569   -1.9482    0.8307 C   0  0  0  0  0  0
    8.1901   -1.9720    0.8521 C   0  0  0  0  0  0
    8.7712   -1.4154    2.1568 C   0  0  0  0  0  0
   10.3051   -1.4172    2.2090 C   0  0  0  0  0  0
   10.8777   -0.7764    3.4842 C   0  0  0  0  0  0
   10.6251   -1.5806    4.7689 C   0  0  0  0  0  0
   11.0997   -0.8758    6.0512 C   0  0  0  0  0  0
   10.2829    0.3704    6.4253 C   0  0  0  0  0  0
   10.6927    1.0087    7.7579 C   0  0  0  0  0  0
    9.8683    2.2394    8.1336 C   0  0  0  0  0  0
   10.2252    2.8666    9.5377 C   0  0  0  0  0  0
   11.0383    2.2091   10.2378 O   0  0  0  0  0  0
    9.6379    3.9479    9.7848 O   0  5  0  0  0  0
   -6.8103    5.3556   12.2972 H   0  0  0  0  0  0
   -6.9701    3.7029   11.6863 H   0  0  0  0  0  0
   -8.3089    4.8435   11.5067 H   0  0  0  0  0  0
   -6.8913    6.2515    9.9561 H   0  0  0  0  0  0
   -5.5635    5.1185   10.1349 H   0  0  0  0  0  0
   -6.9720    3.3037    9.1144 H   0  0  0  0  0  0
   -8.3030    4.4353    8.9374 H   0  0  0  0  0  0
   -6.8818    5.8685    7.4324 H   0  0  0  0  0  0
   -5.5538    4.7346    7.6078 H   0  0  0  0  0  0
   -6.9582    2.9263    6.5651 H   0  0  0  0  0  0
   -8.2885    4.0595    6.3910 H   0  0  0  0  0  0
   -6.8576    5.5075    4.9094 H   0  0  0  0  0  0
   -5.5311    4.3717    5.0822 H   0  0  0  0  0  0
   -6.9283    2.5747    4.0114 H   0  0  0  0  0  0
   -8.2573    3.7095    3.8390 H   0  0  0  0  0  0
   -6.8228    5.1691    2.3746 H   0  0  0  0  0  0
   -5.4899    4.0442    2.5677 H   0  0  0  0  0  0
   -6.8116    2.2466    1.4485 H   0  0  0  0  0  0
   -8.2001    3.3076    1.3351 H   0  0  0  0  0  0
   -7.0460    3.1848   -0.8296 H   0  0  0  0  0  0
   -7.0338    4.8242   -0.1999 H   0  0  0  0  0  0
   -4.8762    4.2896   -1.2184 H   0  0  0  0  0  0
   -4.6632    4.5970    0.4914 H   0  0  0  0  0  0
   -4.5681    2.1193    0.9281 H   0  0  0  0  0  0
   -4.8150    1.8118   -0.7823 H   0  0  0  0  0  0
   -2.6651    3.0599   -1.2811 H   0  0  0  0  0  0
   -2.4343    3.3149    0.4402 H   0  0  0  0  0  0
   -2.3910    0.8041    0.7804 H   0  0  0  0  0  0
   -2.5619    0.5845   -0.9528 H   0  0  0  0  0  0
   -0.3946    1.8566   -1.2980 H   0  0  0  0  0  0
   -0.2266    2.0028    0.4432 H   0  0  0  0  0  0
   -0.2075   -0.5252    0.6267 H   0  0  0  0  0  0
   -0.3117   -0.6344   -1.1224 H   0  0  0  0  0  0
    1.8725    0.6410   -1.3037 H   0  0  0  0  0  0
    1.9711    0.6829    0.4483 H   0  0  0  0  0  0
    1.9737   -1.8516    0.4820 H   0  0  0  0  0  0
    1.9462   -1.8567   -1.2737 H   0  0  0  0  0  0
    4.1410   -0.5916   -1.2880 H   0  0  0  0  0  0
    4.1480   -0.6273    0.4665 H   0  0  0  0  0  0
    4.1769   -3.1533    0.3987 H   0  0  0  0  0  0
    4.1670   -3.0943   -1.3562 H   0  0  0  0  0  0
    6.4412   -3.5042   -0.6449 H   0  0  0  0  0  0
    6.3848   -1.8827   -1.3154 H   0  0  0  0  0  0
    6.3191   -0.9173    0.9982 H   0  0  0  0  0  0
    6.2749   -2.5321    1.6808 H   0  0  0  0  0  0
    8.5430   -3.0029    0.7020 H   0  0  0  0  0  0
    8.5764   -1.3926    0.0006 H   0  0  0  0  0  0
    8.4118   -0.3865    2.3016 H   0  0  0  0  0  0
    8.3697   -1.9934    2.9988 H   0  0  0  0  0  0
   10.6725   -2.4502    2.1158 H   0  0  0  0  0  0
   10.6869   -0.8781    1.3301 H   0  0  0  0  0  0
   11.9615   -0.6398    3.3670 H   0  0  0  0  0  0
   10.4568    0.2311    3.5904 H   0  0  0  0  0  0
    9.5523   -1.7935    4.8704 H   0  0  0  0  0  0
   11.1213   -2.5577    4.6697 H   0  0  0  0  0  0
   11.0509   -1.5876    6.8865 H   0  0  0  0  0  0
   12.1607   -0.6032    5.9506 H   0  0  0  0  0  0
   10.3633    1.1232    5.6279 H   0  0  0  0  0  0
    9.2172    0.0942    6.4657 H   0  0  0  0  0  0
   10.6157    0.2795    8.5736 H   0  0  0  0  0  0
   11.7551    1.2859    7.7280 H   0  0  0  0  0  0
    9.9734    3.0263    7.3723 H   0  0  0  0  0  0
    8.7964    1.9860    8.1453 H   0  0  0  0  0  0
  1  2  1  0  0  0
  1 35  1  0  0  0
  1 36  1  0  0  0
  1 37  1  0  0  0
  2  3  1  0  0  0
  2 38  1  0  0  0
  2 39  1  0  0  0
  3  4  1  0  0  0
  3 40  1  0  0  0
  3 41  1  0  0  0
  4  5  1  0  0  0
  4 42  1  0  0  0
  4 43  1  0  0  0
  5  6  1  0  0  0
  5 44  1  0  0  0
  5 45  1  0  0  0
  6  7  1  0  0  0
  6 46  1  0  0  0
  6 47  1  0  0  0
  7  8  1  0  0  0
  7 48  1  0  0  0
  7 49  1  0  0  0
  8  9  1  0  0  0
  8 50  1  0  0  0
  8 51  1  0  0  0
  9 10  1  0  0  0
  9 52  1  0  0  0
  9 53  1  0  0  0
 10 11  1  0  0  0
 10 54  1  0  0  0
 10 55  1  0  0  0
 11 12  1  0  0  0
 11 56  1  0  0  0
 11 57  1  0  0  0
 12 13  1  0  0  0
 12 58  1  0  0  0
 12 59  1  0  0  0
 13 14  1  0  0  0
 13 60  1  0  0  0
 13 61  1  0  0  0
 14 15  1  0  0  0
 14 62  1  0  0  0
 14 63  1  0  0  0
 15 16  1  0  0  0
 15 64  1  0  0  0
 15 65  1  0  0  0
 16 17  1  0  0  0
 16 66  1  0  0  0
 16 67  1  0  0  0
 17 18  1  0  0  0
 17 68  1  0  0  0
 17 69  1  0  0  0
 18 19  1  0  0  0
 18 70  1  0  0  0
 18 71  1  0  0  0
 19 20  1  0  0  0
 19 72  1  0  0  0
 19 73  1  0  0  0
 20 21  1  0  0  0
 20 74  1  0  0  0
 20 75  1  0  0  0
 21 22  1  0  0  0
 21 76  1  0  0  0
 21 77  1  0  0  0
 22 23  1  0  0  0
 22 78  1  0  0  0
 22 79  1  0  0  0
 23 24  1  0  0  0
 23 80  1  0  0  0
 23 81  1  0  0  0
 24 25  1  0  0  0
 24 82  1  0  0  0
 24 83  1  0  0  0
 25 26  1  0  0  0
 25 84  1  0  0  0
 25 85  1  0  0  0
 26 27  1  0  0  0
 26 86  1  0  0  0
 26 87  1  0  0  0
 27 28  1  0  0  0
 27 88  1  0  0  0
 27 89  1  0  0  0
 28 29  1  0  0  0
 28 90  1  0  0  0
 28 91  1  0  0  0
 29 30  1  0  0  0
 29 92  1  0  0  0
 29 93  1  0  0  0
 30 31  1  0  0  0
 30 94  1  0  0  0
 30 95  1  0  0  0
 31 32  1  0  0  0
 31 96  1  0  0  0
 31 97  1  0  0  0
 32 33  2  0  0  0
 32 34  1  0  0  0
M  CHG  1  34  -1
M  END
> <i_m_Spin_multiplicity>
1

> <s_j_Task>
Single Point

> <s_j_QM_Method>
DFT(b3lyp-d3)

> <s_j_QM_Basis>
6-31g**

> <i_j_Number_of_canonical_orbitals>
825

> <i_j_Geometry_convergence_category>
4

> <r_j_Gas_Phase_Energy>
-1408.08450856964

> <r_j_Final_Energy>
-1408.08450856964

> <r_j_HOMO>
-0.00454030425330165

> <r_j_LUMO>
0.111350590166624

> <r_j_Polarizability>
360.251395064576

> <r_j_QM_Dipole_(debye)>
49.0305333969985

> <r_j_QM_Dipole_X_(debye)>
-40.0675691193647

> <r_j_QM_Dipole_Y_(debye)>
-6.19998449587765

> <r_j_QM_Dipole_Z_(debye)>
-27.5706964422372

> <r_j_Lowest_Frequency_(cm-1)>
-18.116155898939

> <r_j_Highest_Frequency_(cm-1)>
3106.88147432908

> <r_j_2nd_Lowest_Frequency_(cm-1)>
5.21863009492273

> <i_j_Num_Negative_Frequencies>
1

> <r_j_Zero_Point_Energy_(kcal/mol)>
570.317550108272

> <r_j_Entropy_(cal/mol/K)_298.15K_1.00E+00atm>
238.189837820208

> <r_j_Enthalpy_(kcal/mol)_298.15K_1.00E+00atm>
26.2083220926281

> <r_j_Free_Energy_(kcal/mol)_298.15K_1.00E+00atm>
-44.807978053467

> <r_j_Internal_Energy_(kcal/mol)_298.15K_1.00E+00atm>
25.6158365038009

> <r_j_Heat_Capacity_(cal/mol/K)_298.15K_1.00E+00atm>
154.288443706607

> <r_j_ln(Q)_298.15K_1.00E+00atm>
75.6271188674088

> <r_j_Total_Internal_Energy_(au)_298.15K_1.00E+00atm>
-1407.13482826185

> <r_j_Total_Enthalpy_(au)_298.15K_1.00E+00atm>
-1407.13388407596

> <r_j_Total_Free_Energy_(au)_298.15K_1.00E+00atm>
-1407.2470557547

> <r_epik_Ionization_Penalty>
  0.0049

> <r_epik_Ionization_Penalty_Charging>
  0.0049

> <r_epik_Ionization_Penalty_Neutral>
  0.0000

> <r_epik_State_Penalty>
  0.0035

> <r_epik_Charging_Adjusted_Penalty>
0.00839777765143097

> <i_epik_Tot_Q>
-1

> <i_epik_Tot_abs_Q>
1

> <s_lp_Force_Field>
S-OPLS

> <r_lp_Energy>
21.350415

> <b_lp_Chiralities_Consistent>
1

$$$$
