19503_1-Methyl-4-ethylcyclohexane
                    3D
 Schrodinger Suite 2021-3.
 27 27  0  0  1  0            999 V2000
   -0.6475    1.4746    0.1264 C   0  0  0  0  0  0
   -0.0463    0.0679    0.0331 C   0  0  0  0  0  0
    1.4898    0.0280   -0.0355 C   0  0  0  0  0  0
    2.0074   -1.4199    0.0551 C   0  0  0  0  0  0
    3.5407   -1.4959   -0.0097 C   0  0  0  0  0  0
    4.1183   -0.8152   -1.2688 C   0  0  0  0  0  0
    3.5855    0.6301   -1.3630 C   0  0  0  0  0  0
    2.0510    0.7097   -1.2981 C   0  0  0  0  0  0
    3.8409   -1.6226   -2.5469 C   0  0  0  0  0  0
   -1.7345    1.4311    0.2508 H   0  0  0  0  0  0
   -0.4445    2.0661   -0.7717 H   0  0  0  0  0  0
   -0.2363    2.0210    0.9832 H   0  0  0  0  0  0
   -0.3710   -0.5169    0.9044 H   0  0  0  0  0  0
   -0.4544   -0.4495   -0.8470 H   0  0  0  0  0  0
    1.8809    0.5755    0.8384 H   0  0  0  0  0  0
    1.6524   -1.8825    0.9848 H   0  0  0  0  0  0
    1.5673   -2.0062   -0.7636 H   0  0  0  0  0  0
    3.9538   -0.9990    0.8792 H   0  0  0  0  0  0
    3.8700   -2.5416    0.0369 H   0  0  0  0  0  0
    5.2095   -0.7630   -1.1510 H   0  0  0  0  0  0
    4.0003    1.2123   -0.5283 H   0  0  0  0  0  0
    3.9485    1.1047   -2.2833 H   0  0  0  0  0  0
    1.6103    0.2315   -2.1843 H   0  0  0  0  0  0
    1.7432    1.7607   -1.3336 H   0  0  0  0  0  0
    2.7702   -1.7259   -2.7481 H   0  0  0  0  0  0
    4.2584   -2.6325   -2.4687 H   0  0  0  0  0  0
    4.2929   -1.1387   -3.4197 H   0  0  0  0  0  0
  1  2  1  0  0  0
  1 10  1  0  0  0
  1 11  1  0  0  0
  1 12  1  0  0  0
  2  3  1  0  0  0
  2 13  1  0  0  0
  2 14  1  0  0  0
  3  8  1  0  0  0
  3  4  1  0  0  0
  3 15  1  0  0  0
  4  5  1  0  0  0
  4 16  1  0  0  0
  4 17  1  0  0  0
  5  6  1  0  0  0
  5 18  1  0  0  0
  5 19  1  0  0  0
  6  7  1  0  0  0
  6  9  1  0  0  0
  6 20  1  0  0  0
  7  8  1  0  0  0
  7 21  1  0  0  0
  7 22  1  0  0  0
  8 23  1  0  0  0
  8 24  1  0  0  0
  9 25  1  0  0  0
  9 26  1  0  0  0
  9 27  1  0  0  0
M  END
>  <i_m_Spin_multiplicity> (1)
1

>  <s_j_Task> (1)
Single Point

>  <s_j_QM_Method> (1)
DFT(b3lyp-d3)

>  <s_j_QM_Basis> (1)
cc-pvtz(-f)

>  <i_j_Number_of_canonical_orbitals> (1)
365

>  <i_j_Geometry_convergence_category> (1)
3

>  <r_j_Gas_Phase_Energy> (1)
-353.961688057348

>  <r_j_Final_Energy> (1)
-353.961688057348

>  <r_j_HOMO> (1)
-0.288004190894761

>  <r_j_LUMO> (1)
0.0289289594389368

>  <r_j_Polarizability> (1)
104.952722370204

>  <r_j_QM_Dipole_(debye)> (1)
0.109703832172237

>  <r_j_QM_Dipole_X_(debye)> (1)
0.0833769945386202

>  <r_j_QM_Dipole_Y_(debye)> (1)
0.0181732056851845

>  <r_j_QM_Dipole_Z_(debye)> (1)
0.0689415852015689

>  <r_j_Lowest_Frequency_(cm-1)> (1)
98.5544832574098

>  <r_j_Highest_Frequency_(cm-1)> (1)
3053.53408085456

>  <r_j_2nd_Lowest_Frequency_(cm-1)> (1)
148.077846162457

>  <i_j_Num_Negative_Frequencies> (1)
0

>  <r_j_Zero_Point_Energy_(kcal/mol)> (1)
159.530117894281

>  <r_j_Entropy_(cal/mol/K)_298.15K_1.00E+00atm> (1)
92.0936924621719

>  <r_j_Enthalpy_(kcal/mol)_298.15K_1.00E+00atm> (1)
6.46150791724201

>  <r_j_Free_Energy_(kcal/mol)_298.15K_1.00E+00atm> (1)
-20.9962264903546

>  <r_j_Internal_Energy_(kcal/mol)_298.15K_1.00E+00atm> (1)
5.86902232841474

>  <r_j_Heat_Capacity_(cal/mol/K)_298.15K_1.00E+00atm> (1)
38.0356572549355

>  <r_j_ln(Q)_298.15K_1.00E+00atm> (1)
35.4375311168548

>  <r_j_Total_Internal_Energy_(au)_298.15K_1.00E+00atm> (1)
-353.698107747998

>  <r_j_Total_Enthalpy_(au)_298.15K_1.00E+00atm> (1)
-353.697163562105

>  <r_j_Total_Free_Energy_(au)_298.15K_1.00E+00atm> (1)
-353.740920247415

>  <r_lp_tautomer_probability> (1)
1

>  <r_epik_Ionization_Penalty> (1)
  0.0000

>  <r_epik_Ionization_Penalty_Charging> (1)
  0.0000

>  <r_epik_Ionization_Penalty_Neutral> (1)
  0.0000

>  <r_epik_State_Penalty> (1)
  0.0000

>  <r_epik_Charging_Adjusted_Penalty> (1)
0

>  <i_epik_Tot_Q> (1)
0

>  <i_epik_Tot_abs_Q> (1)
0

>  <s_lp_Force_Field> (1)
S-OPLS

>  <r_lp_Energy> (1)
11.158237

>  <b_lp_Chiralities_Consistent> (1)
1

$$$$
