19775_Norpristane
                    3D
 Schrodinger Suite 2021-3.
 56 55  0  0  1  0            999 V2000
   -7.1005   -0.7796   -3.6112 C   0  0  0  0  0  0
   -6.5128    0.0108   -2.4383 C   0  0  0  0  0  0
   -4.9795    0.0160   -2.4244 C   0  0  0  0  0  0
   -4.3851    0.8012   -1.2491 C   0  0  0  0  0  0
   -2.8507    0.8212   -1.2546 C   0  0  0  0  0  0
   -2.2007    1.4669   -0.0146 C   0  0  0  0  0  0
   -2.6380    2.9292    0.1654 C   0  0  0  0  0  0
   -0.6616    1.3832   -0.0629 C   0  0  0  0  0  0
   -0.0757   -0.0353   -0.0568 C   0  0  0  0  0  0
    1.4538   -0.0333    0.0700 C   0  0  0  0  0  0
    2.1239   -1.4167   -0.0468 C   0  0  0  0  0  0
    1.6379   -2.3778    1.0496 C   0  0  0  0  0  0
    3.6628   -1.3102   -0.0092 C   0  0  0  0  0  0
    4.3029   -0.6022   -1.2106 C   0  0  0  0  0  0
    5.8343   -0.5620   -1.1247 C   0  0  0  0  0  0
    6.5455   -0.0137   -2.3765 C   0  0  0  0  0  0
    8.0689   -0.1238   -2.2181 C   0  0  0  0  0  0
    6.1432    1.4345   -2.6926 C   0  0  0  0  0  0
   -8.1955   -0.7667   -3.5981 H   0  0  0  0  0  0
   -6.7787   -1.8271   -3.5810 H   0  0  0  0  0  0
   -6.7732   -0.3625   -4.5707 H   0  0  0  0  0  0
   -6.8770    1.0468   -2.4735 H   0  0  0  0  0  0
   -6.8808   -0.4075   -1.4913 H   0  0  0  0  0  0
   -4.6129   -1.0203   -2.3946 H   0  0  0  0  0  0
   -4.6097    0.4397   -3.3695 H   0  0  0  0  0  0
   -4.7766    1.8260   -1.2750 H   0  0  0  0  0  0
   -4.7394    0.3634   -0.3043 H   0  0  0  0  0  0
   -2.4958   -0.2128   -1.3487 H   0  0  0  0  0  0
   -2.4968    1.3469   -2.1546 H   0  0  0  0  0  0
   -2.5364    0.9018    0.8696 H   0  0  0  0  0  0
   -2.3694    3.5242   -0.7166 H   0  0  0  0  0  0
   -2.1464    3.3821    1.0334 H   0  0  0  0  0  0
   -3.7178    3.0216    0.3133 H   0  0  0  0  0  0
   -0.3018    1.9244   -0.9509 H   0  0  0  0  0  0
   -0.2589    1.9277    0.8030 H   0  0  0  0  0  0
   -0.5236   -0.5989    0.7717 H   0  0  0  0  0  0
   -0.3542   -0.5667   -0.9760 H   0  0  0  0  0  0
    1.8588    0.6313   -0.7034 H   0  0  0  0  0  0
    1.7379    0.4160    1.0337 H   0  0  0  0  0  0
    1.8425   -1.8450   -1.0220 H   0  0  0  0  0  0
    1.8604   -1.9726    2.0448 H   0  0  0  0  0  0
    2.1351   -3.3505    0.9686 H   0  0  0  0  0  0
    0.5597   -2.5535    0.9950 H   0  0  0  0  0  0
    3.9615   -0.7993    0.9187 H   0  0  0  0  0  0
    4.0827   -2.3235    0.0589 H   0  0  0  0  0  0
    4.0027   -1.1179   -2.1346 H   0  0  0  0  0  0
    3.9159    0.4195   -1.2910 H   0  0  0  0  0  0
    6.1327    0.0401   -0.2532 H   0  0  0  0  0  0
    6.2056   -1.5783   -0.9301 H   0  0  0  0  0  0
    6.2468   -0.6421   -3.2296 H   0  0  0  0  0  0
    8.4169    0.4942   -1.3808 H   0  0  0  0  0  0
    8.5896    0.2165   -3.1199 H   0  0  0  0  0  0
    8.3781   -1.1562   -2.0200 H   0  0  0  0  0  0
    6.3752    2.0929   -1.8458 H   0  0  0  0  0  0
    5.0741    1.5280   -2.9055 H   0  0  0  0  0  0
    6.6883    1.8115   -3.5649 H   0  0  0  0  0  0
  1  2  1  0  0  0
  1 19  1  0  0  0
  1 20  1  0  0  0
  1 21  1  0  0  0
  2  3  1  0  0  0
  2 22  1  0  0  0
  2 23  1  0  0  0
  3  4  1  0  0  0
  3 24  1  0  0  0
  3 25  1  0  0  0
  4  5  1  0  0  0
  4 26  1  0  0  0
  4 27  1  0  0  0
  5  6  1  0  0  0
  5 28  1  0  0  0
  5 29  1  0  0  0
  6  7  1  0  0  0
  6  8  1  0  0  0
  6 30  1  0  0  0
  7 31  1  0  0  0
  7 32  1  0  0  0
  7 33  1  0  0  0
  8  9  1  0  0  0
  8 34  1  0  0  0
  8 35  1  0  0  0
  9 10  1  0  0  0
  9 36  1  0  0  0
  9 37  1  0  0  0
 10 11  1  0  0  0
 10 38  1  0  0  0
 10 39  1  0  0  0
 11 12  1  0  0  0
 11 13  1  0  0  0
 11 40  1  0  0  0
 12 41  1  0  0  0
 12 42  1  0  0  0
 12 43  1  0  0  0
 13 14  1  0  0  0
 13 44  1  0  0  0
 13 45  1  0  0  0
 14 15  1  0  0  0
 14 46  1  0  0  0
 14 47  1  0  0  0
 15 16  1  0  0  0
 15 48  1  0  0  0
 15 49  1  0  0  0
 16 17  1  0  0  0
 16 18  1  0  0  0
 16 50  1  0  0  0
 17 51  1  0  0  0
 17 52  1  0  0  0
 17 53  1  0  0  0
 18 54  1  0  0  0
 18 55  1  0  0  0
 18 56  1  0  0  0
M  END
>  <i_m_Spin_multiplicity> (1)
1

>  <s_j_Task> (1)
Single Point

>  <s_j_QM_Method> (1)
DFT(b3lyp-d3)

>  <s_j_QM_Basis> (1)
cc-pvtz(-f)

>  <i_j_Number_of_canonical_orbitals> (1)
750

>  <i_j_Geometry_convergence_category> (1)
3

>  <r_j_Gas_Phase_Energy> (1)
-709.135071736938

>  <r_j_Final_Energy> (1)
-709.135071736938

>  <r_j_HOMO> (1)
-0.286958376971343

>  <r_j_LUMO> (1)
0.029205884102485

>  <r_j_Polarizability> (1)
223.029715462932

>  <r_j_QM_Dipole_(debye)> (1)
0.147266457924654

>  <r_j_QM_Dipole_X_(debye)> (1)
-0.0918972569842786

>  <r_j_QM_Dipole_Y_(debye)> (1)
-0.0997635908411958

>  <r_j_QM_Dipole_Z_(debye)> (1)
-0.0573544220693564

>  <r_j_Lowest_Frequency_(cm-1)> (1)
28.3175810972799

>  <r_j_Highest_Frequency_(cm-1)> (1)
3055.73389534663

>  <r_j_2nd_Lowest_Frequency_(cm-1)> (1)
48.5449445909842

>  <i_j_Num_Negative_Frequencies> (1)
0

>  <r_j_Zero_Point_Energy_(kcal/mol)> (1)
332.175319051557

>  <r_j_Entropy_(cal/mol/K)_298.15K_1.00E+00atm> (1)
152.737783935801

>  <r_j_Enthalpy_(kcal/mol)_298.15K_1.00E+00atm> (1)
14.6745682622554

>  <r_j_Free_Energy_(kcal/mol)_298.15K_1.00E+00atm> (1)
-30.8642020182036

>  <r_j_Internal_Energy_(kcal/mol)_298.15K_1.00E+00atm> (1)
14.0820826734281

>  <r_j_Heat_Capacity_(cal/mol/K)_298.15K_1.00E+00atm> (1)
87.2376124255164

>  <r_j_ln(Q)_298.15K_1.00E+00atm> (1)
52.0927472333868

>  <r_j_Total_Internal_Energy_(au)_298.15K_1.00E+00atm> (1)
-708.583275440183

>  <r_j_Total_Enthalpy_(au)_298.15K_1.00E+00atm> (1)
-708.582331254291

>  <r_j_Total_Free_Energy_(au)_298.15K_1.00E+00atm> (1)
-708.654901904548

>  <r_lp_tautomer_probability> (1)
1

>  <r_epik_Ionization_Penalty> (1)
  0.0000

>  <r_epik_Ionization_Penalty_Charging> (1)
  0.0000

>  <r_epik_Ionization_Penalty_Neutral> (1)
  0.0000

>  <r_epik_State_Penalty> (1)
  0.0000

>  <r_epik_Charging_Adjusted_Penalty> (1)
0

>  <i_epik_Tot_Q> (1)
0

>  <i_epik_Tot_abs_Q> (1)
0

>  <s_lp_Force_Field> (1)
S-OPLS

>  <r_lp_Energy> (1)
10.887865

>  <b_lp_Chiralities_Consistent> (1)
1

$$$$
