20017_Methyl nonacosanoate
                    3D
 Schrodinger Suite 2021-3.
 92 91  0  0  1  0            999 V2000
  -11.9620    5.5213   -6.4388 C   0  0  0  0  0  0
  -10.6481    5.2350   -5.7060 C   0  0  0  0  0  0
  -10.7596    5.3883   -4.1841 C   0  0  0  0  0  0
   -9.4448    5.0999   -3.4517 C   0  0  0  0  0  0
   -9.5368    5.2432   -1.9279 C   0  0  0  0  0  0
   -8.2089    4.9440   -1.2230 C   0  0  0  0  0  0
   -8.2750    5.0700    0.3052 C   0  0  0  0  0  0
   -6.9259    4.8409    1.0067 C   0  0  0  0  0  0
   -6.3946    3.4049    0.9019 C   0  0  0  0  0  0
   -5.0007    3.2266    1.5141 C   0  0  0  0  0  0
   -4.4648    1.7945    1.3971 C   0  0  0  0  0  0
   -3.0045    1.6550    1.8406 C   0  0  0  0  0  0
   -2.4523    0.2303    1.7084 C   0  0  0  0  0  0
   -0.9462    0.1477    1.9789 C   0  0  0  0  0  0
   -0.3592   -1.2624    1.8409 C   0  0  0  0  0  0
    1.1701   -1.2714    1.9392 C   0  0  0  0  0  0
    1.8100   -2.6592    1.8145 C   0  0  0  0  0  0
    3.3396   -2.5840    1.7465 C   0  0  0  0  0  0
    4.0408   -3.9478    1.6712 C   0  0  0  0  0  0
    5.5339   -3.8487    1.3153 C   0  0  0  0  0  0
    6.3859   -3.0863    2.3393 C   0  0  0  0  0  0
    7.8266   -2.8510    1.8706 C   0  0  0  0  0  0
    8.6725   -2.0592    2.8755 C   0  0  0  0  0  0
   10.0266   -1.6160    2.3107 C   0  0  0  0  0  0
   10.8835   -0.8374    3.3190 C   0  0  0  0  0  0
   12.1580   -0.2296    2.7115 C   0  0  0  0  0  0
   11.8841    0.9807    1.8063 C   0  0  0  0  0  0
   13.1544    1.5385    1.1379 C   0  0  0  0  0  0
   13.8021    0.5326    0.2090 C   0  0  0  0  0  0
   14.9187    0.0756    0.3224 O   0  0  0  0  0  0
   12.9525    0.1769   -0.7861 O   0  0  0  0  0  0
   13.4621   -0.8060   -1.7025 C   0  0  0  0  0  0
  -11.8531    5.4039   -7.5221 H   0  0  0  0  0  0
  -12.3056    6.5444   -6.2469 H   0  0  0  0  0  0
  -12.7546    4.8403   -6.1074 H   0  0  0  0  0  0
  -10.3099    4.2166   -5.9417 H   0  0  0  0  0  0
   -9.8642    5.9080   -6.0796 H   0  0  0  0  0  0
  -11.0959    6.4075   -3.9447 H   0  0  0  0  0  0
  -11.5431    4.7150   -3.8075 H   0  0  0  0  0  0
   -9.1096    4.0821   -3.6987 H   0  0  0  0  0  0
   -8.6635    5.7741   -3.8315 H   0  0  0  0  0  0
   -9.8664    6.2609   -1.6744 H   0  0  0  0  0  0
  -10.3147    4.5678   -1.5438 H   0  0  0  0  0  0
   -7.8841    3.9329   -1.5007 H   0  0  0  0  0  0
   -7.4349    5.6254   -1.6055 H   0  0  0  0  0  0
   -8.6462    6.0715    0.5615 H   0  0  0  0  0  0
   -9.0177    4.3609    0.6986 H   0  0  0  0  0  0
   -6.1821    5.5323    0.5842 H   0  0  0  0  0  0
   -7.0181    5.1083    2.0679 H   0  0  0  0  0  0
   -7.1041    2.7188    1.3868 H   0  0  0  0  0  0
   -6.3513    3.0997   -0.1516 H   0  0  0  0  0  0
   -4.3028    3.9138    1.0141 H   0  0  0  0  0  0
   -5.0164    3.5291    2.5709 H   0  0  0  0  0  0
   -5.0989    1.1147    1.9838 H   0  0  0  0  0  0
   -4.5519    1.4621    0.3525 H   0  0  0  0  0  0
   -2.3855    2.3361    1.2386 H   0  0  0  0  0  0
   -2.8994    1.9939    2.8811 H   0  0  0  0  0  0
   -2.9927   -0.4407    2.3910 H   0  0  0  0  0  0
   -2.6542   -0.1431    0.6940 H   0  0  0  0  0  0
   -0.4258    0.8202    1.2815 H   0  0  0  0  0  0
   -0.7311    0.5350    2.9851 H   0  0  0  0  0  0
   -0.7886   -1.9200    2.6099 H   0  0  0  0  0  0
   -0.6601   -1.6893    0.8734 H   0  0  0  0  0  0
    1.5766   -0.6201    1.1517 H   0  0  0  0  0  0
    1.4779   -0.8158    2.8914 H   0  0  0  0  0  0
    1.5028   -3.2869    2.6631 H   0  0  0  0  0  0
    1.4305   -3.1599    0.9123 H   0  0  0  0  0  0
    3.6241   -1.9873    0.8670 H   0  0  0  0  0  0
    3.7046   -2.0252    2.6179 H   0  0  0  0  0  0
    3.9179   -4.4777    2.6265 H   0  0  0  0  0  0
    3.5388   -4.5659    0.9144 H   0  0  0  0  0  0
    5.9471   -4.8578    1.1844 H   0  0  0  0  0  0
    5.6277   -3.3546    0.3370 H   0  0  0  0  0  0
    5.9302   -2.1099    2.5468 H   0  0  0  0  0  0
    6.3862   -3.6303    3.2948 H   0  0  0  0  0  0
    8.3131   -3.8128    1.6550 H   0  0  0  0  0  0
    7.8008   -2.3055    0.9159 H   0  0  0  0  0  0
    8.1135   -1.1670    3.1930 H   0  0  0  0  0  0
    8.8246   -2.6589    3.7841 H   0  0  0  0  0  0
   10.5898   -2.4935    1.9622 H   0  0  0  0  0  0
    9.8471   -1.0013    1.4188 H   0  0  0  0  0  0
   10.2807   -0.0346    3.7681 H   0  0  0  0  0  0
   11.1563   -1.5077    4.1443 H   0  0  0  0  0  0
   12.8397    0.0802    3.5142 H   0  0  0  0  0  0
   12.6934   -1.0042    2.1447 H   0  0  0  0  0  0
   11.1700    0.7168    1.0199 H   0  0  0  0  0  0
   11.4201    1.7781    2.4001 H   0  0  0  0  0  0
   12.9020    2.4301    0.5524 H   0  0  0  0  0  0
   13.9046    1.8174    1.8823 H   0  0  0  0  0  0
   12.6619   -0.9848   -2.4209 H   0  0  0  0  0  0
   13.7182   -1.7287   -1.1746 H   0  0  0  0  0  0
   14.3573   -0.4349   -2.2088 H   0  0  0  0  0  0
  1  2  1  0  0  0
  1 33  1  0  0  0
  1 34  1  0  0  0
  1 35  1  0  0  0
  2  3  1  0  0  0
  2 36  1  0  0  0
  2 37  1  0  0  0
  3  4  1  0  0  0
  3 38  1  0  0  0
  3 39  1  0  0  0
  4  5  1  0  0  0
  4 40  1  0  0  0
  4 41  1  0  0  0
  5  6  1  0  0  0
  5 42  1  0  0  0
  5 43  1  0  0  0
  6  7  1  0  0  0
  6 44  1  0  0  0
  6 45  1  0  0  0
  7  8  1  0  0  0
  7 46  1  0  0  0
  7 47  1  0  0  0
  8  9  1  0  0  0
  8 48  1  0  0  0
  8 49  1  0  0  0
  9 10  1  0  0  0
  9 50  1  0  0  0
  9 51  1  0  0  0
 10 11  1  0  0  0
 10 52  1  0  0  0
 10 53  1  0  0  0
 11 12  1  0  0  0
 11 54  1  0  0  0
 11 55  1  0  0  0
 12 13  1  0  0  0
 12 56  1  0  0  0
 12 57  1  0  0  0
 13 14  1  0  0  0
 13 58  1  0  0  0
 13 59  1  0  0  0
 14 15  1  0  0  0
 14 60  1  0  0  0
 14 61  1  0  0  0
 15 16  1  0  0  0
 15 62  1  0  0  0
 15 63  1  0  0  0
 16 17  1  0  0  0
 16 64  1  0  0  0
 16 65  1  0  0  0
 17 18  1  0  0  0
 17 66  1  0  0  0
 17 67  1  0  0  0
 18 19  1  0  0  0
 18 68  1  0  0  0
 18 69  1  0  0  0
 19 20  1  0  0  0
 19 70  1  0  0  0
 19 71  1  0  0  0
 20 21  1  0  0  0
 20 72  1  0  0  0
 20 73  1  0  0  0
 21 22  1  0  0  0
 21 74  1  0  0  0
 21 75  1  0  0  0
 22 23  1  0  0  0
 22 76  1  0  0  0
 22 77  1  0  0  0
 23 24  1  0  0  0
 23 78  1  0  0  0
 23 79  1  0  0  0
 24 25  1  0  0  0
 24 80  1  0  0  0
 24 81  1  0  0  0
 25 26  1  0  0  0
 25 82  1  0  0  0
 25 83  1  0  0  0
 26 27  1  0  0  0
 26 84  1  0  0  0
 26 85  1  0  0  0
 27 28  1  0  0  0
 27 86  1  0  0  0
 27 87  1  0  0  0
 28 29  1  0  0  0
 28 88  1  0  0  0
 28 89  1  0  0  0
 29 30  2  0  0  0
 29 31  1  0  0  0
 31 32  1  0  0  0
 32 90  1  0  0  0
 32 91  1  0  0  0
 32 92  1  0  0  0
M  END
>  <i_m_Spin_multiplicity> (1)
1

>  <s_j_Task> (1)
Single Point

>  <s_j_QM_Method> (1)
DFT(b3lyp-d3)

>  <s_j_QM_Basis> (1)
cc-pvtz(-f)

>  <i_j_Number_of_canonical_orbitals> (1)
1266

>  <i_j_Geometry_convergence_category> (1)
3

>  <r_j_Gas_Phase_Energy> (1)
-1330.38415045094

>  <r_j_Final_Energy> (1)
-1330.38415045094

>  <r_j_HOMO> (1)
-0.256982582535679

>  <r_j_LUMO> (1)
0.000898111987656809

>  <r_j_Polarizability> (1)
377.317356760871

>  <r_j_QM_Dipole_(debye)> (1)
1.92139654399218

>  <r_j_QM_Dipole_X_(debye)> (1)
-1.87057754553404

>  <r_j_QM_Dipole_Y_(debye)> (1)
0.116204971840665

>  <r_j_QM_Dipole_Z_(debye)> (1)
-0.42332107191638

>  <r_j_Lowest_Frequency_(cm-1)> (1)
12.893350654758

>  <r_j_Highest_Frequency_(cm-1)> (1)
3106.86954065054

>  <r_j_2nd_Lowest_Frequency_(cm-1)> (1)
19.6066885913826

>  <i_j_Num_Negative_Frequencies> (1)
0

>  <r_j_Zero_Point_Energy_(kcal/mol)> (1)
539.18022403134

>  <r_j_Entropy_(cal/mol/K)_298.15K_1.00E+00atm> (1)
224.221007316593

>  <r_j_Enthalpy_(kcal/mol)_298.15K_1.00E+00atm> (1)
24.6394681140415

>  <r_j_Free_Energy_(kcal/mol)_298.15K_1.00E+00atm> (1)
-42.2120252174007

>  <r_j_Internal_Energy_(kcal/mol)_298.15K_1.00E+00atm> (1)
24.0469825252142

>  <r_j_Heat_Capacity_(cal/mol/K)_298.15K_1.00E+00atm> (1)
146.956613303368

>  <r_j_ln(Q)_298.15K_1.00E+00atm> (1)
71.2456573010531

>  <r_j_Total_Internal_Energy_(au)_298.15K_1.00E+00atm> (1)
-1329.48659075904

>  <r_j_Total_Enthalpy_(au)_298.15K_1.00E+00atm> (1)
-1329.48564657315

>  <r_j_Total_Free_Energy_(au)_298.15K_1.00E+00atm> (1)
-1329.59218120972

>  <r_lp_tautomer_probability> (1)
1

>  <r_epik_Ionization_Penalty> (1)
  0.0000

>  <r_epik_Ionization_Penalty_Charging> (1)
  0.0000

>  <r_epik_Ionization_Penalty_Neutral> (1)
  0.0000

>  <r_epik_State_Penalty> (1)
  0.0000

>  <r_epik_Charging_Adjusted_Penalty> (1)
0

>  <i_epik_Tot_Q> (1)
0

>  <i_epik_Tot_abs_Q> (1)
0

>  <s_lp_Force_Field> (1)
S-OPLS

>  <r_lp_Energy> (1)
15.074054

>  <b_lp_Chiralities_Consistent> (1)
1

>  <s_epik_Chemistry_Notes> (1)
This compound has an ester and may undergo hydrolysis at high or low pH.

$$$$
