20143700_3,5-dimethylnonane
                    3D
 Schrodinger Suite 2021-3.
 35 34  0  0  1  0            999 V2000
   -4.2595   -1.5005   -2.4936 C   0  0  0  0  0  0
   -2.7296   -1.5090   -2.4244 C   0  0  0  0  0  0
   -2.1750   -0.6381   -1.2902 C   0  0  0  0  0  0
   -0.6420   -0.6390   -1.2321 C   0  0  0  0  0  0
   -0.0325    0.0881   -0.0186 C   0  0  0  0  0  0
   -0.4466    1.5674    0.0330 C   0  0  0  0  0  0
    1.5078   -0.0127   -0.0035 C   0  0  0  0  0  0
    2.1226   -1.4276   -0.0150 C   0  0  0  0  0  0
    1.5686   -2.3022    1.1196 C   0  0  0  0  0  0
    3.6623   -1.3725    0.0666 C   0  0  0  0  0  0
    4.3477   -0.6566   -1.1025 C   0  0  0  0  0  0
   -4.6301   -2.1313   -3.3084 H   0  0  0  0  0  0
   -4.6411   -0.4859   -2.6569 H   0  0  0  0  0  0
   -4.6978   -1.8703   -1.5594 H   0  0  0  0  0  0
   -2.3724   -2.5401   -2.2965 H   0  0  0  0  0  0
   -2.3155   -1.1617   -3.3811 H   0  0  0  0  0  0
   -2.5504    0.3857   -1.4136 H   0  0  0  0  0  0
   -2.5755   -0.9958   -0.3301 H   0  0  0  0  0  0
   -0.3030   -1.6827   -1.2325 H   0  0  0  0  0  0
   -0.2410   -0.1908   -2.1538 H   0  0  0  0  0  0
   -0.4208   -0.3945    0.8898 H   0  0  0  0  0  0
   -0.1441    2.0874   -0.8848 H   0  0  0  0  0  0
    0.0309    2.0785    0.8761 H   0  0  0  0  0  0
   -1.5280    1.6880    0.1442 H   0  0  0  0  0  0
    1.8880    0.5513   -0.8657 H   0  0  0  0  0  0
    1.8792    0.5124    0.8894 H   0  0  0  0  0  0
    1.8694   -1.9097   -0.9706 H   0  0  0  0  0  0
    1.7476   -1.8318    2.0945 H   0  0  0  0  0  0
    2.0528   -3.2848    1.1306 H   0  0  0  0  0  0
    0.4914   -2.4670    1.0236 H   0  0  0  0  0  0
    3.9517   -0.8935    1.0132 H   0  0  0  0  0  0
    4.0410   -2.4018    0.1210 H   0  0  0  0  0  0
    5.4365   -0.7488   -1.0339 H   0  0  0  0  0  0
    4.1114    0.4116   -1.1271 H   0  0  0  0  0  0
    4.0374   -1.0871   -2.0620 H   0  0  0  0  0  0
  1  2  1  0  0  0
  1 12  1  0  0  0
  1 13  1  0  0  0
  1 14  1  0  0  0
  2  3  1  0  0  0
  2 15  1  0  0  0
  2 16  1  0  0  0
  3  4  1  0  0  0
  3 17  1  0  0  0
  3 18  1  0  0  0
  4  5  1  0  0  0
  4 19  1  0  0  0
  4 20  1  0  0  0
  5  6  1  0  0  0
  5  7  1  0  0  0
  5 21  1  0  0  0
  6 22  1  0  0  0
  6 23  1  0  0  0
  6 24  1  0  0  0
  7  8  1  0  0  0
  7 25  1  0  0  0
  7 26  1  0  0  0
  8  9  1  0  0  0
  8 10  1  0  0  0
  8 27  1  0  0  0
  9 28  1  0  0  0
  9 29  1  0  0  0
  9 30  1  0  0  0
 10 11  1  0  0  0
 10 31  1  0  0  0
 10 32  1  0  0  0
 11 33  1  0  0  0
 11 34  1  0  0  0
 11 35  1  0  0  0
M  END
>  <i_m_Spin_multiplicity> (1)
1

>  <s_j_Task> (1)
Single Point

>  <s_j_QM_Method> (1)
DFT(b3lyp-d3)

>  <s_j_QM_Basis> (1)
cc-pvtz(-f)

>  <i_j_Number_of_canonical_orbitals> (1)
466

>  <i_j_Geometry_convergence_category> (1)
3

>  <r_j_Gas_Phase_Energy> (1)
-433.828769859594

>  <r_j_Final_Energy> (1)
-433.828769859594

>  <r_j_HOMO> (1)
-0.29927722263356

>  <r_j_LUMO> (1)
0.0231737521808471

>  <r_j_Polarizability> (1)
135.409450711176

>  <r_j_QM_Dipole_(debye)> (1)
0.10890260803323

>  <r_j_QM_Dipole_X_(debye)> (1)
0.0233923457058887

>  <r_j_QM_Dipole_Y_(debye)> (1)
-0.103514996527105

>  <r_j_QM_Dipole_Z_(debye)> (1)
-0.0244381196659865

>  <r_j_Lowest_Frequency_(cm-1)> (1)
59.7732835750075

>  <r_j_Highest_Frequency_(cm-1)> (1)
3055.85005380106

>  <r_j_2nd_Lowest_Frequency_(cm-1)> (1)
80.2287827948528

>  <i_j_Num_Negative_Frequencies> (1)
0

>  <r_j_Zero_Point_Energy_(kcal/mol)> (1)
207.461514998417

>  <r_j_Entropy_(cal/mol/K)_298.15K_1.00E+00atm> (1)
113.169802715961

>  <r_j_Enthalpy_(kcal/mol)_298.15K_1.00E+00atm> (1)
9.27209982880274

>  <r_j_Free_Energy_(kcal/mol)_298.15K_1.00E+00atm> (1)
-24.4694768509612

>  <r_j_Internal_Energy_(kcal/mol)_298.15K_1.00E+00atm> (1)
8.67961423997546

>  <r_j_Heat_Capacity_(cal/mol/K)_298.15K_1.00E+00atm> (1)
53.4086396242487

>  <r_j_ln(Q)_298.15K_1.00E+00atm> (1)
41.2996996254278

>  <r_j_Total_Internal_Energy_(au)_298.15K_1.00E+00atm> (1)
-433.484327043076

>  <r_j_Total_Enthalpy_(au)_298.15K_1.00E+00atm> (1)
-433.483382857184

>  <r_j_Total_Free_Energy_(au)_298.15K_1.00E+00atm> (1)
-433.537153482637

>  <r_lp_tautomer_probability> (1)
1

>  <r_epik_Ionization_Penalty> (1)
  0.0000

>  <r_epik_Ionization_Penalty_Charging> (1)
  0.0000

>  <r_epik_Ionization_Penalty_Neutral> (1)
  0.0000

>  <r_epik_State_Penalty> (1)
  0.0000

>  <r_epik_Charging_Adjusted_Penalty> (1)
0

>  <i_epik_Tot_Q> (1)
0

>  <i_epik_Tot_abs_Q> (1)
0

>  <s_lp_Force_Field> (1)
S-OPLS

>  <r_lp_Energy> (1)
6.8384

>  <b_lp_Chiralities_Consistent> (1)
1

$$$$
