20245_Nonacosanoic acid
                    3D
 Schrodinger Suite 2021-3.
 88 87  0  0  1  0            999 V2000
  -14.0500    4.4228    2.5720 C   0  0  0  0  0  0
  -13.1712    5.0616    1.4924 C   0  0  0  0  0  0
  -11.6708    4.8566    1.7358 C   0  0  0  0  0  0
  -10.7904    5.4965    0.6565 C   0  0  0  0  0  0
   -9.2870    5.3003    0.8864 C   0  0  0  0  0  0
   -8.4305    5.9461   -0.2109 C   0  0  0  0  0  0
   -6.9135    5.8458    0.0092 C   0  0  0  0  0  0
   -6.3560    4.4155   -0.0122 C   0  0  0  0  0  0
   -4.8238    4.3701    0.0340 C   0  0  0  0  0  0
   -4.2491    2.9486    0.0306 C   0  0  0  0  0  0
   -2.7166    2.9151   -0.0094 C   0  0  0  0  0  0
   -2.1323    1.4978    0.0111 C   0  0  0  0  0  0
   -0.6031    1.4682   -0.0997 C   0  0  0  0  0  0
   -0.0136    0.0545   -0.0331 C   0  0  0  0  0  0
    1.5133    0.0294   -0.1775 C   0  0  0  0  0  0
    2.1312   -1.3799   -0.1493 C   0  0  0  0  0  0
    1.8410   -2.1991    1.1206 C   0  0  0  0  0  0
    2.3038   -1.5327    2.4217 C   0  0  0  0  0  0
    2.0200   -2.3745    3.6710 C   0  0  0  0  0  0
    2.4693   -1.6989    4.9719 C   0  0  0  0  0  0
    2.0969   -2.4860    6.2333 C   0  0  0  0  0  0
    2.5417   -1.8053    7.5332 C   0  0  0  0  0  0
    2.0713   -2.5371    8.7951 C   0  0  0  0  0  0
    2.5042   -1.8505   10.0971 C   0  0  0  0  0  0
    1.9997   -2.5429   11.3742 C   0  0  0  0  0  0
    0.4742   -2.5242   11.5508 C   0  0  0  0  0  0
   -0.0053   -3.1231   12.8787 C   0  0  0  0  0  0
   -1.5241   -3.1178   13.0474 C   0  0  0  0  0  0
   -2.0376   -3.7430   14.4027 C   0  0  0  0  0  0
   -3.2830   -3.6995   14.5521 O   0  0  0  0  0  0
   -1.1473   -4.2084   15.1602 O   0  5  0  0  0  0
  -15.1147    4.5841    2.3726 H   0  0  0  0  0  0
  -13.8281    4.8424    3.5600 H   0  0  0  0  0  0
  -13.8811    3.3414    2.6289 H   0  0  0  0  0  0
  -13.4368    4.6478    0.5096 H   0  0  0  0  0  0
  -13.3834    6.1382    1.4347 H   0  0  0  0  0  0
  -11.4024    5.2697    2.7188 H   0  0  0  0  0  0
  -11.4557    3.7798    1.7922 H   0  0  0  0  0  0
  -11.0629    5.0820   -0.3250 H   0  0  0  0  0  0
  -11.0111    6.5724    0.6004 H   0  0  0  0  0  0
   -9.0075    5.7234    1.8621 H   0  0  0  0  0  0
   -9.0706    4.2258    0.9481 H   0  0  0  0  0  0
   -8.6846    5.4912   -1.1794 H   0  0  0  0  0  0
   -8.7071    7.0063   -0.2938 H   0  0  0  0  0  0
   -6.4062    6.4324   -0.7692 H   0  0  0  0  0  0
   -6.6512    6.3219    0.9650 H   0  0  0  0  0  0
   -6.7606    3.8418    0.8319 H   0  0  0  0  0  0
   -6.7055    3.9049   -0.9217 H   0  0  0  0  0  0
   -4.4217    4.9254   -0.8260 H   0  0  0  0  0  0
   -4.4697    4.9026    0.9284 H   0  0  0  0  0  0
   -4.6054    2.4088    0.9194 H   0  0  0  0  0  0
   -4.6450    2.3986   -0.8355 H   0  0  0  0  0  0
   -2.3686    3.4386   -0.9120 H   0  0  0  0  0  0
   -2.3168    3.4841    0.8421 H   0  0  0  0  0  0
   -2.4419    0.9908    0.9360 H   0  0  0  0  0  0
   -2.5659    0.9130   -0.8131 H   0  0  0  0  0  0
   -0.2986    1.9488   -1.0409 H   0  0  0  0  0  0
   -0.1682    2.0782    0.7052 H   0  0  0  0  0  0
   -0.3056   -0.4046    0.9203 H   0  0  0  0  0  0
   -0.4637   -0.5689   -0.8198 H   0  0  0  0  0  0
    1.7899    0.5156   -1.1232 H   0  0  0  0  0  0
    1.9588    0.6455    0.6146 H   0  0  0  0  0  0
    1.7723   -1.9423   -1.0225 H   0  0  0  0  0  0
    3.2192   -1.2880   -0.2719 H   0  0  0  0  0  0
    0.7655   -2.4103    1.1883 H   0  0  0  0  0  0
    2.3295   -3.1783    1.0260 H   0  0  0  0  0  0
    3.3805   -1.3169    2.3581 H   0  0  0  0  0  0
    1.8077   -0.5598    2.5369 H   0  0  0  0  0  0
    0.9417   -2.5830    3.7256 H   0  0  0  0  0  0
    2.5119   -3.3533    3.5769 H   0  0  0  0  0  0
    3.5572   -1.5406    4.9435 H   0  0  0  0  0  0
    2.0209   -0.6963    5.0304 H   0  0  0  0  0  0
    1.0073   -2.6303    6.2571 H   0  0  0  0  0  0
    2.5328   -3.4941    6.1803 H   0  0  0  0  0  0
    3.6381   -1.7146    7.5418 H   0  0  0  0  0  0
    2.1545   -0.7758    7.5511 H   0  0  0  0  0  0
    0.9778   -2.6185    8.7688 H   0  0  0  0  0  0
    2.4517   -3.5692    8.7858 H   0  0  0  0  0  0
    3.6027   -1.7901   10.1156 H   0  0  0  0  0  0
    2.1434   -0.8109   10.0881 H   0  0  0  0  0  0
    2.3553   -3.5838   11.3897 H   0  0  0  0  0  0
    2.4597   -2.0568   12.2455 H   0  0  0  0  0  0
    0.1198   -1.4845   11.4668 H   0  0  0  0  0  0
   -0.0031   -3.0680   10.7230 H   0  0  0  0  0  0
    0.3540   -4.1546   12.9822 H   0  0  0  0  0  0
    0.4462   -2.5834   13.7210 H   0  0  0  0  0  0
   -1.9163   -2.0919   12.9776 H   0  0  0  0  0  0
   -2.0016   -3.6682   12.2220 H   0  0  0  0  0  0
  1  2  1  0  0  0
  1 32  1  0  0  0
  1 33  1  0  0  0
  1 34  1  0  0  0
  2  3  1  0  0  0
  2 35  1  0  0  0
  2 36  1  0  0  0
  3  4  1  0  0  0
  3 37  1  0  0  0
  3 38  1  0  0  0
  4  5  1  0  0  0
  4 39  1  0  0  0
  4 40  1  0  0  0
  5  6  1  0  0  0
  5 41  1  0  0  0
  5 42  1  0  0  0
  6  7  1  0  0  0
  6 43  1  0  0  0
  6 44  1  0  0  0
  7  8  1  0  0  0
  7 45  1  0  0  0
  7 46  1  0  0  0
  8  9  1  0  0  0
  8 47  1  0  0  0
  8 48  1  0  0  0
  9 10  1  0  0  0
  9 49  1  0  0  0
  9 50  1  0  0  0
 10 11  1  0  0  0
 10 51  1  0  0  0
 10 52  1  0  0  0
 11 12  1  0  0  0
 11 53  1  0  0  0
 11 54  1  0  0  0
 12 13  1  0  0  0
 12 55  1  0  0  0
 12 56  1  0  0  0
 13 14  1  0  0  0
 13 57  1  0  0  0
 13 58  1  0  0  0
 14 15  1  0  0  0
 14 59  1  0  0  0
 14 60  1  0  0  0
 15 16  1  0  0  0
 15 61  1  0  0  0
 15 62  1  0  0  0
 16 17  1  0  0  0
 16 63  1  0  0  0
 16 64  1  0  0  0
 17 18  1  0  0  0
 17 65  1  0  0  0
 17 66  1  0  0  0
 18 19  1  0  0  0
 18 67  1  0  0  0
 18 68  1  0  0  0
 19 20  1  0  0  0
 19 69  1  0  0  0
 19 70  1  0  0  0
 20 21  1  0  0  0
 20 71  1  0  0  0
 20 72  1  0  0  0
 21 22  1  0  0  0
 21 73  1  0  0  0
 21 74  1  0  0  0
 22 23  1  0  0  0
 22 75  1  0  0  0
 22 76  1  0  0  0
 23 24  1  0  0  0
 23 77  1  0  0  0
 23 78  1  0  0  0
 24 25  1  0  0  0
 24 79  1  0  0  0
 24 80  1  0  0  0
 25 26  1  0  0  0
 25 81  1  0  0  0
 25 82  1  0  0  0
 26 27  1  0  0  0
 26 83  1  0  0  0
 26 84  1  0  0  0
 27 28  1  0  0  0
 27 85  1  0  0  0
 27 86  1  0  0  0
 28 29  1  0  0  0
 28 87  1  0  0  0
 28 88  1  0  0  0
 29 30  2  0  0  0
 29 31  1  0  0  0
M  END
>  <s_lp_Force_Field> (1)
S-OPLS

>  <r_lp_Energy> (1)
19.4734

>  <b_lp_Chiralities_Consistent> (1)
1

>  <r_epik_Ionization_Penalty> (1)
  0.0049

>  <r_epik_Ionization_Penalty_Charging> (1)
  0.0049

>  <r_epik_Ionization_Penalty_Neutral> (1)
  0.0000

>  <r_epik_State_Penalty> (1)
  0.0035

>  <r_epik_Charging_Adjusted_Penalty> (1)
0.00839778

>  <i_epik_Tot_Q> (1)
-1

>  <i_epik_Tot_abs_Q> (1)
1

>  <i_m_Spin_multiplicity> (1)
1

>  <s_j_Task> (1)
Single Point

>  <s_j_QM_Method> (1)
DFT(b3lyp-d3)

>  <s_j_QM_Basis> (1)
6-31g**

>  <i_j_Number_of_canonical_orbitals> (1)
750

>  <i_j_Geometry_convergence_category> (1)
4

>  <r_j_Gas_Phase_Energy> (1)
-1290.12760036598

>  <r_j_Final_Energy> (1)
-1290.12760036598

>  <r_j_HOMO> (1)
-0.00422807261537073

>  <r_j_LUMO> (1)
0.119614672197271

>  <r_j_Polarizability> (1)
327.318719189456

>  <r_j_QM_Dipole_(debye)> (1)
50.5062690570229

>  <r_j_QM_Dipole_X_(debye)> (1)
-3.13803697711064

>  <r_j_QM_Dipole_Y_(debye)> (1)
20.1553321503699

>  <r_j_QM_Dipole_Z_(debye)> (1)
-46.2038799658529

>  <r_j_Lowest_Frequency_(cm-1)> (1)
-17.317017872954

>  <r_j_Highest_Frequency_(cm-1)> (1)
3106.39443242278

>  <r_j_2nd_Lowest_Frequency_(cm-1)> (1)
-8.31343216195902

>  <i_j_Num_Negative_Frequencies> (1)
2

>  <r_j_Zero_Point_Energy_(kcal/mol)> (1)
516.086704220864

>  <r_j_Entropy_(cal/mol/K)_298.15K_1.00E+00atm> (1)
219.041363504326

>  <r_j_Enthalpy_(kcal/mol)_298.15K_1.00E+00atm> (1)
23.432535652574

>  <r_j_Free_Energy_(kcal/mol)_298.15K_1.00E+00atm> (1)
-41.8746468762407

>  <r_j_Internal_Energy_(kcal/mol)_298.15K_1.00E+00atm> (1)
22.8400500637468

>  <r_j_Heat_Capacity_(cal/mol/K)_298.15K_1.00E+00atm> (1)
138.053754231164

>  <r_j_ln(Q)_298.15K_1.00E+00atm> (1)
70.676228529245

>  <r_j_Total_Internal_Energy_(au)_298.15K_1.00E+00atm> (1)
-1289.26876591

>  <r_j_Total_Enthalpy_(au)_298.15K_1.00E+00atm> (1)
-1289.26782172411

>  <r_j_Total_Free_Energy_(au)_298.15K_1.00E+00atm> (1)
-1289.37189534475

$$$$
