20284_Pentylcyclohexane
                    3D
 Schrodinger Suite 2021-3.
 33 33  0  0  1  0            999 V2000
   -2.2293    1.4567    0.1439 C   0  0  0  0  0  0
   -0.7005    1.4667    0.0518 C   0  0  0  0  0  0
   -0.0915    0.0602    0.0131 C   0  0  0  0  0  0
    1.4391    0.0621   -0.0765 C   0  0  0  0  0  0
    2.0405   -1.3481   -0.1244 C   0  0  0  0  0  0
    3.5775   -1.4035   -0.1070 C   0  0  0  0  0  0
    4.0737   -2.8555    0.0359 C   0  0  0  0  0  0
    5.6063   -2.9507    0.0598 C   0  0  0  0  0  0
    6.2243   -2.2948   -1.1835 C   0  0  0  0  0  0
    5.7484   -0.8425   -1.3310 C   0  0  0  0  0  0
    4.2145   -0.7504   -1.3494 C   0  0  0  0  0  0
   -2.6384    2.4721    0.1696 H   0  0  0  0  0  0
   -2.5661    0.9382    1.0491 H   0  0  0  0  0  0
   -2.6724    0.9400   -0.7153 H   0  0  0  0  0  0
   -0.3893    2.0196   -0.8451 H   0  0  0  0  0  0
   -0.2836    2.0169    0.9065 H   0  0  0  0  0  0
   -0.4044   -0.4957    0.9088 H   0  0  0  0  0  0
   -0.5058   -0.4908   -0.8437 H   0  0  0  0  0  0
    1.7413    0.6311   -0.9650 H   0  0  0  0  0  0
    1.8525    0.6034    0.7868 H   0  0  0  0  0  0
    1.6605   -1.9208    0.7337 H   0  0  0  0  0  0
    1.6739   -1.8702   -1.0207 H   0  0  0  0  0  0
    3.9256   -0.8451    0.7777 H   0  0  0  0  0  0
    3.6515   -3.3047    0.9439 H   0  0  0  0  0  0
    3.6883   -3.4441   -0.8102 H   0  0  0  0  0  0
    5.9847   -2.4443    0.9594 H   0  0  0  0  0  0
    5.9200   -3.9987    0.1364 H   0  0  0  0  0  0
    7.3190   -2.3363   -1.1352 H   0  0  0  0  0  0
    5.9269   -2.8637   -2.0763 H   0  0  0  0  0  0
    6.1330   -0.2510   -0.4876 H   0  0  0  0  0  0
    6.1641   -0.3940   -2.2412 H   0  0  0  0  0  0
    3.8305   -1.2577   -2.2476 H   0  0  0  0  0  0
    3.9089    0.2987   -1.4297 H   0  0  0  0  0  0
  1  2  1  0  0  0
  1 12  1  0  0  0
  1 13  1  0  0  0
  1 14  1  0  0  0
  2  3  1  0  0  0
  2 15  1  0  0  0
  2 16  1  0  0  0
  3  4  1  0  0  0
  3 17  1  0  0  0
  3 18  1  0  0  0
  4  5  1  0  0  0
  4 19  1  0  0  0
  4 20  1  0  0  0
  5  6  1  0  0  0
  5 21  1  0  0  0
  5 22  1  0  0  0
  6 11  1  0  0  0
  6  7  1  0  0  0
  6 23  1  0  0  0
  7  8  1  0  0  0
  7 24  1  0  0  0
  7 25  1  0  0  0
  8  9  1  0  0  0
  8 26  1  0  0  0
  8 27  1  0  0  0
  9 10  1  0  0  0
  9 28  1  0  0  0
  9 29  1  0  0  0
 10 11  1  0  0  0
 10 30  1  0  0  0
 10 31  1  0  0  0
 11 32  1  0  0  0
 11 33  1  0  0  0
M  END
>  <i_m_Spin_multiplicity> (1)
1

>  <s_j_Task> (1)
Single Point

>  <s_j_QM_Method> (1)
DFT(b3lyp-d3)

>  <s_j_QM_Basis> (1)
cc-pvtz(-f)

>  <i_j_Number_of_canonical_orbitals> (1)
447

>  <i_j_Geometry_convergence_category> (1)
0

>  <r_j_Gas_Phase_Energy> (1)
-432.620953742181

>  <r_j_Final_Energy> (1)
-432.620953742181

>  <r_j_HOMO> (1)
-0.293217334113254

>  <r_j_LUMO> (1)
0.0254478920566042

>  <r_j_Polarizability> (1)
131.404814183337

>  <r_j_QM_Dipole_(debye)> (1)
0.115010728620774

>  <r_j_QM_Dipole_X_(debye)> (1)
0.0970219489789798

>  <r_j_QM_Dipole_Y_(debye)> (1)
0.0582446816053518

>  <r_j_QM_Dipole_Z_(debye)> (1)
0.020536946678918

>  <r_j_Lowest_Frequency_(cm-1)> (1)
69.5834065588556

>  <r_j_Highest_Frequency_(cm-1)> (1)
3045.78747924257

>  <r_j_2nd_Lowest_Frequency_(cm-1)> (1)
88.0639479174924

>  <i_j_Num_Negative_Frequencies> (1)
0

>  <r_j_Zero_Point_Energy_(kcal/mol)> (1)
195.376986256959

>  <r_j_Entropy_(cal/mol/K)_298.15K_1.00E+00atm> (1)
105.030178481972

>  <r_j_Enthalpy_(kcal/mol)_298.15K_1.00E+00atm> (1)
8.01975764880902

>  <r_j_Free_Energy_(kcal/mol)_298.15K_1.00E+00atm> (1)
-23.2949900655911

>  <r_j_Internal_Energy_(kcal/mol)_298.15K_1.00E+00atm> (1)
7.42727205998175

>  <r_j_Heat_Capacity_(cal/mol/K)_298.15K_1.00E+00atm> (1)
46.9890167387731

>  <r_j_ln(Q)_298.15K_1.00E+00atm> (1)
39.3173952326834

>  <r_j_Total_Internal_Energy_(au)_298.15K_1.00E+00atm> (1)
-432.297764582475

>  <r_j_Total_Enthalpy_(au)_298.15K_1.00E+00atm> (1)
-432.296820396583

>  <r_j_Total_Free_Energy_(au)_298.15K_1.00E+00atm> (1)
-432.346723623883

>  <r_lp_tautomer_probability> (1)
1

>  <r_epik_Ionization_Penalty> (1)
  0.0000

>  <r_epik_Ionization_Penalty_Charging> (1)
  0.0000

>  <r_epik_Ionization_Penalty_Neutral> (1)
  0.0000

>  <r_epik_State_Penalty> (1)
  0.0000

>  <r_epik_Charging_Adjusted_Penalty> (1)
0

>  <i_epik_Tot_Q> (1)
0

>  <i_epik_Tot_abs_Q> (1)
0

>  <s_lp_Force_Field> (1)
S-OPLS

>  <r_lp_Energy> (1)
9.808543

>  <b_lp_Chiralities_Consistent> (1)
1

$$$$
