20414_2,2,4,4,6,8,8-Heptamethylnonane
                    3D
 Schrodinger Suite 2021-3.
 50 49  0  0  1  0            999 V2000
   -1.1489    1.3250    2.5243 C   0  0  0  0  0  0
   -0.6029    1.4064    1.0864 C   0  0  0  0  0  0
   -1.7333    1.6600    0.0543 C   0  0  0  0  0  0
   -2.1698    3.1196   -0.2568 C   0  0  0  0  0  0
   -2.5887    3.8994    1.0025 C   0  0  0  0  0  0
   -3.3785    3.0453   -1.2119 C   0  0  0  0  0  0
   -1.0365    3.8890   -0.9621 C   0  0  0  0  0  0
    0.1506    0.0824    0.7741 C   0  0  0  0  0  0
    1.4561    0.1523   -0.0713 C   0  0  0  0  0  0
    1.2673    0.9333   -1.3819 C   0  0  0  0  0  0
    2.5291    0.8880    0.7659 C   0  0  0  0  0  0
    2.0109   -1.2911   -0.3023 C   0  0  0  0  0  0
    1.4762   -2.2850   -1.3826 C   0  0  0  0  0  0
    2.0844   -3.6631   -1.0337 C   0  0  0  0  0  0
    1.9621   -1.9134   -2.8003 C   0  0  0  0  0  0
   -0.0559   -2.4342   -1.3982 C   0  0  0  0  0  0
   -1.7980    0.4472    2.6323 H   0  0  0  0  0  0
   -1.7331    2.2017    2.8076 H   0  0  0  0  0  0
   -0.3304    1.2209    3.2452 H   0  0  0  0  0  0
    0.1060    2.2420    1.0458 H   0  0  0  0  0  0
   -1.4446    1.2129   -0.9040 H   0  0  0  0  0  0
   -2.6187    1.0964    0.3835 H   0  0  0  0  0  0
   -2.9818    4.8848    0.7264 H   0  0  0  0  0  0
   -1.7429    4.0625    1.6773 H   0  0  0  0  0  0
   -3.3723    3.3718    1.5573 H   0  0  0  0  0  0
   -4.2271    2.5400   -0.7367 H   0  0  0  0  0  0
   -3.1283    2.4929   -2.1250 H   0  0  0  0  0  0
   -3.7084    4.0478   -1.5072 H   0  0  0  0  0  0
   -1.3568    4.9079   -1.2071 H   0  0  0  0  0  0
   -0.7458    3.3970   -1.8963 H   0  0  0  0  0  0
   -0.1451    3.9701   -0.3312 H   0  0  0  0  0  0
    0.4283   -0.3945    1.7233 H   0  0  0  0  0  0
   -0.5625   -0.6017    0.3074 H   0  0  0  0  0  0
    2.1879    0.9219   -1.9748 H   0  0  0  0  0  0
    1.0222    1.9783   -1.1780 H   0  0  0  0  0  0
    0.4651    0.5217   -1.9990 H   0  0  0  0  0  0
    3.4593    1.0015    0.1980 H   0  0  0  0  0  0
    2.7612    0.3341    1.6827 H   0  0  0  0  0  0
    2.1983    1.8901    1.0568 H   0  0  0  0  0  0
    3.0879   -1.1955   -0.4983 H   0  0  0  0  0  0
    1.9411   -1.8004    0.6693 H   0  0  0  0  0  0
    1.8048   -4.4144   -1.7810 H   0  0  0  0  0  0
    1.7345   -4.0158   -0.0569 H   0  0  0  0  0  0
    3.1789   -3.6160   -1.0005 H   0  0  0  0  0  0
    3.0496   -1.7778   -2.8203 H   0  0  0  0  0  0
    1.5037   -0.9972   -3.1754 H   0  0  0  0  0  0
    1.7156   -2.7146   -3.5065 H   0  0  0  0  0  0
   -0.3503   -3.2089   -2.1161 H   0  0  0  0  0  0
   -0.5573   -1.5082   -1.6930 H   0  0  0  0  0  0
   -0.4395   -2.7315   -0.4164 H   0  0  0  0  0  0
  1  2  1  0  0  0
  1 17  1  0  0  0
  1 18  1  0  0  0
  1 19  1  0  0  0
  2  3  1  0  0  0
  2  8  1  0  0  0
  2 20  1  0  0  0
  3  4  1  0  0  0
  3 21  1  0  0  0
  3 22  1  0  0  0
  4  5  1  0  0  0
  4  6  1  0  0  0
  4  7  1  0  0  0
  5 23  1  0  0  0
  5 24  1  0  0  0
  5 25  1  0  0  0
  6 26  1  0  0  0
  6 27  1  0  0  0
  6 28  1  0  0  0
  7 29  1  0  0  0
  7 30  1  0  0  0
  7 31  1  0  0  0
  8  9  1  0  0  0
  8 32  1  0  0  0
  8 33  1  0  0  0
  9 10  1  0  0  0
  9 11  1  0  0  0
  9 12  1  0  0  0
 10 34  1  0  0  0
 10 35  1  0  0  0
 10 36  1  0  0  0
 11 37  1  0  0  0
 11 38  1  0  0  0
 11 39  1  0  0  0
 12 13  1  0  0  0
 12 40  1  0  0  0
 12 41  1  0  0  0
 13 14  1  0  0  0
 13 15  1  0  0  0
 13 16  1  0  0  0
 14 42  1  0  0  0
 14 43  1  0  0  0
 14 44  1  0  0  0
 15 45  1  0  0  0
 15 46  1  0  0  0
 15 47  1  0  0  0
 16 48  1  0  0  0
 16 49  1  0  0  0
 16 50  1  0  0  0
M  END
>  <i_m_Spin_multiplicity> (1)
1

>  <s_j_Task> (1)
Single Point

>  <s_j_QM_Method> (1)
DFT(b3lyp-d3)

>  <s_j_QM_Basis> (1)
cc-pvtz(-f)

>  <i_j_Number_of_canonical_orbitals> (1)
668

>  <i_j_Geometry_convergence_category> (1)
3

>  <r_j_Gas_Phase_Energy> (1)
-630.465994498175

>  <r_j_Final_Energy> (1)
-630.465994498175

>  <r_j_HOMO> (1)
-0.283708089012394

>  <r_j_LUMO> (1)
0.0212603396512847

>  <r_j_Polarizability> (1)
192.98630860767

>  <r_j_QM_Dipole_(debye)> (1)
0.0809665081426682

>  <r_j_QM_Dipole_X_(debye)> (1)
-0.00263587324180088

>  <r_j_QM_Dipole_Y_(debye)> (1)
0.0681971075153404

>  <r_j_QM_Dipole_Z_(debye)> (1)
-0.0435635414034604

>  <r_j_Lowest_Frequency_(cm-1)> (1)
47.6716135437612

>  <r_j_Highest_Frequency_(cm-1)> (1)
3088.29473555198

>  <r_j_2nd_Lowest_Frequency_(cm-1)> (1)
70.6979594174264

>  <i_j_Num_Negative_Frequencies> (1)
0

>  <r_j_Zero_Point_Energy_(kcal/mol)> (1)
295.888468409877

>  <r_j_Entropy_(cal/mol/K)_298.15K_1.00E+00atm> (1)
133.775232269129

>  <r_j_Enthalpy_(kcal/mol)_298.15K_1.00E+00atm> (1)
12.6795384198842

>  <r_j_Free_Energy_(kcal/mol)_298.15K_1.00E+00atm> (1)
-27.2055470811567

>  <r_j_Internal_Energy_(kcal/mol)_298.15K_1.00E+00atm> (1)
12.0870528310569

>  <r_j_Heat_Capacity_(cal/mol/K)_298.15K_1.00E+00atm> (1)
80.2252433288191

>  <r_j_ln(Q)_298.15K_1.00E+00atm> (1)
45.9176519972502

>  <r_j_Total_Internal_Energy_(au)_298.15K_1.00E+00atm> (1)
-629.97520426159

>  <r_j_Total_Enthalpy_(au)_298.15K_1.00E+00atm> (1)
-629.974260075697

>  <r_j_Total_Free_Energy_(au)_298.15K_1.00E+00atm> (1)
-630.037821005704

>  <r_lp_tautomer_probability> (1)
1

>  <r_epik_Ionization_Penalty> (1)
  0.0000

>  <r_epik_Ionization_Penalty_Charging> (1)
  0.0000

>  <r_epik_Ionization_Penalty_Neutral> (1)
  0.0000

>  <r_epik_State_Penalty> (1)
  0.0000

>  <r_epik_Charging_Adjusted_Penalty> (1)
0

>  <i_epik_Tot_Q> (1)
0

>  <i_epik_Tot_abs_Q> (1)
0

>  <s_lp_Force_Field> (1)
S-OPLS

>  <r_lp_Energy> (1)
27.0794

>  <b_lp_Chiralities_Consistent> (1)
1

$$$$
