20473_1-Propanethiol, 3-(trimethoxysilyl)-
                    3D
 Schrodinger Suite 2021-3.
 27 26  0  0  1  0            999 V2000
   -1.0678    1.9824   -1.4347 C   0  0  0  0  0  0
   -1.1439    1.2019   -0.2485 O   0  0  0  0  0  0
   -0.3222   -0.2270   -0.0582 Si  0  0  0  0  0  0
    1.5275    0.0278   -0.0869 C   0  0  0  0  0  0
    2.3122   -1.2890    0.0624 C   0  0  0  0  0  0
    3.8242   -1.0569    0.0600 C   0  0  0  0  0  0
    4.7024   -2.6757    0.2448 S   0  0  0  0  0  0
   -0.8587   -0.8658    1.3644 O   0  0  0  0  0  0
   -1.1310   -0.1111    2.5389 C   0  0  0  0  0  0
   -0.6581   -1.3080   -1.2560 O   0  0  0  0  0  0
   -1.9264   -1.9440   -1.3983 C   0  0  0  0  0  0
   -1.7972    2.7939   -1.3589 H   0  0  0  0  0  0
   -1.2998    1.3871   -2.3274 H   0  0  0  0  0  0
   -0.0712    2.4265   -1.5627 H   0  0  0  0  0  0
    1.8067    0.5299   -1.0233 H   0  0  0  0  0  0
    1.7920    0.7232    0.7217 H   0  0  0  0  0  0
    2.0213   -1.7866    0.9955 H   0  0  0  0  0  0
    2.0413   -1.9695   -0.7523 H   0  0  0  0  0  0
    4.1337   -0.5860   -0.8783 H   0  0  0  0  0  0
    4.1089   -0.3987    0.8869 H   0  0  0  0  0  0
    5.9578   -2.1834    0.2168 H   0  0  0  0  0  0
   -1.6548   -0.7604    3.2465 H   0  0  0  0  0  0
   -1.7605    0.7587    2.3198 H   0  0  0  0  0  0
   -0.2028    0.2361    3.0130 H   0  0  0  0  0  0
   -2.6956   -1.2296   -1.7191 H   0  0  0  0  0  0
   -2.2462   -2.4049   -0.4570 H   0  0  0  0  0  0
   -1.8316   -2.7210   -2.1619 H   0  0  0  0  0  0
  1  2  1  0  0  0
  1 12  1  0  0  0
  1 13  1  0  0  0
  1 14  1  0  0  0
  2  3  1  0  0  0
  3  4  1  0  0  0
  3  8  1  0  0  0
  3 10  1  0  0  0
  4  5  1  0  0  0
  4 15  1  0  0  0
  4 16  1  0  0  0
  5  6  1  0  0  0
  5 17  1  0  0  0
  5 18  1  0  0  0
  6  7  1  0  0  0
  6 19  1  0  0  0
  6 20  1  0  0  0
  7 21  1  0  0  0
  8  9  1  0  0  0
  9 22  1  0  0  0
  9 23  1  0  0  0
  9 24  1  0  0  0
 10 11  1  0  0  0
 11 25  1  0  0  0
 11 26  1  0  0  0
 11 27  1  0  0  0
M  END
> <i_m_Spin_multiplicity>
1

> <s_j_Task>
Single Point

> <s_j_QM_Method>
DFT(b3lyp-d3)

> <s_j_QM_Basis>
cc-pvtz(-f)

> <i_j_Number_of_canonical_orbitals>
405

> <i_j_Geometry_convergence_category>
1

> <r_j_Gas_Phase_Energy>
-1152.00245546726

> <r_j_Final_Energy>
-1152.00245546726

> <r_j_HOMO>
-0.246922986907311

> <r_j_LUMO>
0.00204779257789701

> <r_j_Polarizability>
124.632035732763

> <r_j_QM_Dipole_(debye)>
2.72042793271531

> <r_j_QM_Dipole_X_(debye)>
-0.783364103173067

> <r_j_QM_Dipole_Y_(debye)>
2.58441001348366

> <r_j_QM_Dipole_Z_(debye)>
-0.328471766158012

> <r_j_Lowest_Frequency_(cm-1)>
44.4254469035863

> <r_j_Highest_Frequency_(cm-1)>
3056.04444106371

> <r_j_2nd_Lowest_Frequency_(cm-1)>
61.4202179497013

> <i_j_Num_Negative_Frequencies>
0

> <r_j_Zero_Point_Energy_(kcal/mol)>
139.67106250899

> <r_j_Entropy_(cal/mol/K)_298.15K_1.00E+00atm>
124.941096138918

> <r_j_Enthalpy_(kcal/mol)_298.15K_1.00E+00atm>
10.4972048312026

> <r_j_Free_Energy_(kcal/mol)_298.15K_1.00E+00atm>
-26.7539829826159

> <r_j_Internal_Energy_(kcal/mol)_298.15K_1.00E+00atm>
9.90471924237529

> <r_j_Heat_Capacity_(cal/mol/K)_298.15K_1.00E+00atm>
54.3916442607267

> <r_j_ln(Q)_298.15K_1.00E+00atm>
45.1554999600428

> <r_j_Total_Internal_Energy_(au)_298.15K_1.00E+00atm>
-1151.76409128488

> <r_j_Total_Enthalpy_(au)_298.15K_1.00E+00atm>
-1151.76314709899

> <r_j_Total_Free_Energy_(au)_298.15K_1.00E+00atm>
-1151.82251064583

> <r_epik_Ionization_Penalty>
  0.0013

> <r_epik_Ionization_Penalty_Charging>
  0.0000

> <r_epik_Ionization_Penalty_Neutral>
  0.0013

> <r_epik_State_Penalty>
  0.0009

> <r_epik_Charging_Adjusted_Penalty>
0.000861053

> <i_epik_Tot_Q>
0

> <i_epik_Tot_abs_Q>
0

> <s_lp_Force_Field>
S-OPLS

> <r_lp_Energy>
-2.06416

> <b_lp_Chiralities_Consistent>
1

$$$$
