21210_Propylene glycol butyl ether
                    3D
 Schrodinger Suite 2021-3.
 25 24  0  0  1  0            999 V2000
   -2.5806    2.8817   -0.0147 C   0  0  0  0  0  0
   -2.0464    1.4467   -0.0493 C   0  0  0  0  0  0
   -0.5155    1.3835   -0.0024 C   0  0  0  0  0  0
    0.0149   -0.0428   -0.0325 C   0  0  0  0  0  0
    1.4304    0.0017    0.0041 O   0  0  0  0  0  0
    2.0341   -1.2724   -0.0087 C   0  0  0  0  0  0
    3.5560   -1.1285    0.0572 C   0  0  0  0  0  0
    4.0097   -0.3350    1.2763 C   0  0  0  0  0  0
    4.0820   -0.4549   -1.0829 O   0  0  0  0  0  0
   -3.6747    2.9031   -0.0508 H   0  0  0  0  0  0
   -2.2061    3.4616   -0.8658 H   0  0  0  0  0  0
   -2.2656    3.3969    0.8997 H   0  0  0  0  0  0
   -2.4618    0.8807    0.7957 H   0  0  0  0  0  0
   -2.4049    0.9442   -0.9581 H   0  0  0  0  0  0
   -0.0877    1.9322   -0.8506 H   0  0  0  0  0  0
   -0.1445    1.8745    0.9060 H   0  0  0  0  0  0
   -0.3757   -0.6160    0.8276 H   0  0  0  0  0  0
   -0.3305   -0.5613   -0.9452 H   0  0  0  0  0  0
    1.6928   -1.8837    0.8462 H   0  0  0  0  0  0
    1.7546   -1.8263   -0.9260 H   0  0  0  0  0  0
    3.9616   -2.1550    0.1198 H   0  0  0  0  0  0
    3.7054   -0.8372    2.1999 H   0  0  0  0  0  0
    3.5617    0.6604    1.2505 H   0  0  0  0  0  0
    5.0981   -0.2355    1.2711 H   0  0  0  0  0  0
    3.7154   -0.8694   -1.8748 H   0  0  0  0  0  0
  1  2  1  0  0  0
  1 10  1  0  0  0
  1 11  1  0  0  0
  1 12  1  0  0  0
  2  3  1  0  0  0
  2 13  1  0  0  0
  2 14  1  0  0  0
  3  4  1  0  0  0
  3 15  1  0  0  0
  3 16  1  0  0  0
  4  5  1  0  0  0
  4 17  1  0  0  0
  4 18  1  0  0  0
  5  6  1  0  0  0
  6  7  1  0  0  0
  6 19  1  0  0  0
  6 20  1  0  0  0
  7  8  1  0  0  0
  7  9  1  0  0  0
  7 21  1  0  0  0
  8 22  1  0  0  0
  8 23  1  0  0  0
  8 24  1  0  0  0
  9 25  1  0  0  0
M  END
>  <i_m_Spin_multiplicity> (1)
1

>  <s_j_Task> (1)
Single Point

>  <s_j_QM_Method> (1)
DFT(b3lyp-d3)

>  <s_j_QM_Basis> (1)
cc-pvtz(-f)

>  <i_j_Number_of_canonical_orbitals> (1)
350

>  <i_j_Geometry_convergence_category> (1)
0

>  <r_j_Gas_Phase_Energy> (1)
-426.990007028774

>  <r_j_Final_Energy> (1)
-426.990007028774

>  <r_j_HOMO> (1)
-0.264279811064705

>  <r_j_LUMO> (1)
0.0171950109172736

>  <r_j_Polarizability> (1)
96.71880297982

>  <r_j_QM_Dipole_(debye)> (1)
2.48341166816584

>  <r_j_QM_Dipole_X_(debye)> (1)
-1.77551821996367

>  <r_j_QM_Dipole_Y_(debye)> (1)
-1.73368854489521

>  <r_j_QM_Dipole_Z_(debye)> (1)
-0.0958780134254259

>  <r_j_Lowest_Frequency_(cm-1)> (1)
64.8136250557861

>  <r_j_Highest_Frequency_(cm-1)> (1)
3760.2432924055

>  <r_j_2nd_Lowest_Frequency_(cm-1)> (1)
94.6382519769648

>  <i_j_Num_Negative_Frequencies> (1)
0

>  <r_j_Zero_Point_Energy_(kcal/mol)> (1)
141.816835849568

>  <r_j_Entropy_(cal/mol/K)_298.15K_1.00E+00atm> (1)
101.86372029708

>  <r_j_Enthalpy_(kcal/mol)_298.15K_1.00E+00atm> (1)
7.57279353399192

>  <r_j_Free_Energy_(kcal/mol)_298.15K_1.00E+00atm> (1)
-22.7978746725824

>  <r_j_Internal_Energy_(kcal/mol)_298.15K_1.00E+00atm> (1)
6.98030794516465

>  <r_j_Heat_Capacity_(cal/mol/K)_298.15K_1.00E+00atm> (1)
40.7116019226324

>  <r_j_ln(Q)_298.15K_1.00E+00atm> (1)
38.4783615036223

>  <r_j_Total_Internal_Energy_(au)_298.15K_1.00E+00atm> (1)
-426.75288368497

>  <r_j_Total_Enthalpy_(au)_298.15K_1.00E+00atm> (1)
-426.751939499078

>  <r_j_Total_Free_Energy_(au)_298.15K_1.00E+00atm> (1)
-426.800338239908

>  <r_lp_tautomer_probability> (1)
1

>  <r_epik_Ionization_Penalty> (1)
  0.0000

>  <r_epik_Ionization_Penalty_Charging> (1)
  0.0000

>  <r_epik_Ionization_Penalty_Neutral> (1)
  0.0000

>  <r_epik_State_Penalty> (1)
  0.0000

>  <r_epik_Charging_Adjusted_Penalty> (1)
0

>  <i_epik_Tot_Q> (1)
0

>  <i_epik_Tot_abs_Q> (1)
0

>  <s_lp_Force_Field> (1)
S-OPLS

>  <r_lp_Energy> (1)
2.43627

>  <b_lp_Chiralities_Consistent> (1)
1

$$$$
