21414_2-Octyl-1-Dodecanol
                    3D
 Schrodinger Suite 2021-3.
 63 62  0  0  1  0            999 V2000
   -8.9461    7.4249   -0.3320 C   0  0  0  0  0  0
   -8.3554    6.0315   -0.0977 C   0  0  0  0  0  0
   -6.8266    5.9987   -0.2122 C   0  0  0  0  0  0
   -6.2307    4.6059    0.0199 C   0  0  0  0  0  0
   -4.7026    4.5631   -0.0952 C   0  0  0  0  0  0
   -4.1194    3.1645    0.1358 C   0  0  0  0  0  0
   -2.5921    3.1070    0.0187 C   0  0  0  0  0  0
   -2.0221    1.7028    0.2494 C   0  0  0  0  0  0
   -0.4954    1.6319    0.1263 C   0  0  0  0  0  0
    0.0521    0.2178    0.3672 C   0  0  0  0  0  0
    1.5650    0.0384    0.1339 C   0  0  0  0  0  0
    1.9833   -1.4456    0.1651 C   0  0  0  0  0  0
    1.4731   -2.2804   -1.0183 C   0  0  0  0  0  0
    2.0488   -3.7045   -1.0676 C   0  0  0  0  0  0
    1.6430   -4.5958    0.1140 C   0  0  0  0  0  0
    2.1602   -6.0333   -0.0133 C   0  0  0  0  0  0
    1.7718   -6.9312    1.1667 C   0  0  0  0  0  0
    2.2913   -8.3680    1.0351 C   0  0  0  0  0  0
    1.9006   -9.2593    2.2178 C   0  0  0  0  0  0
    2.3816    0.8372    1.1549 C   0  0  0  0  0  0
    3.7617    0.7393    0.8075 O   0  0  0  0  0  0
  -10.0377    7.4201   -0.2449 H   0  0  0  0  0  0
   -8.6928    7.7973   -1.3315 H   0  0  0  0  0  0
   -8.5563    8.1457    0.3961 H   0  0  0  0  0  0
   -8.6507    5.6689    0.8965 H   0  0  0  0  0  0
   -8.7863    5.3232   -0.8187 H   0  0  0  0  0  0
   -6.5292    6.3616   -1.2067 H   0  0  0  0  0  0
   -6.3930    6.7062    0.5095 H   0  0  0  0  0  0
   -6.5294    4.2447    1.0146 H   0  0  0  0  0  0
   -6.6678    3.9000   -0.7010 H   0  0  0  0  0  0
   -4.4019    4.9234   -1.0895 H   0  0  0  0  0  0
   -4.2626    5.2656    0.6272 H   0  0  0  0  0  0
   -4.4204    2.8058    1.1307 H   0  0  0  0  0  0
   -4.5642    2.4631   -0.5848 H   0  0  0  0  0  0
   -2.2890    3.4641   -0.9760 H   0  0  0  0  0  0
   -2.1445    3.8055    0.7404 H   0  0  0  0  0  0
   -2.3227    1.3486    1.2460 H   0  0  0  0  0  0
   -2.4764    1.0046   -0.4683 H   0  0  0  0  0  0
   -0.1942    1.9710   -0.8751 H   0  0  0  0  0  0
   -0.0506    2.3435    0.8340 H   0  0  0  0  0  0
   -0.1930   -0.1005    1.3918 H   0  0  0  0  0  0
   -0.4876   -0.4708   -0.2936 H   0  0  0  0  0  0
    1.8164    0.4449   -0.8572 H   0  0  0  0  0  0
    3.0779   -1.4909    0.1824 H   0  0  0  0  0  0
    1.6387   -1.8836    1.1126 H   0  0  0  0  0  0
    0.3769   -2.3442   -0.9987 H   0  0  0  0  0  0
    1.7318   -1.7615   -1.9515 H   0  0  0  0  0  0
    1.7250   -4.1866   -2.0003 H   0  0  0  0  0  0
    3.1457   -3.6496   -1.1181 H   0  0  0  0  0  0
    2.0149   -4.1646    1.0525 H   0  0  0  0  0  0
    0.5463   -4.6087    0.1987 H   0  0  0  0  0  0
    1.7810   -6.4752   -0.9461 H   0  0  0  0  0  0
    3.2554   -6.0166   -0.1108 H   0  0  0  0  0  0
    2.1528   -6.4918    2.1001 H   0  0  0  0  0  0
    0.6767   -6.9490    1.2667 H   0  0  0  0  0  0
    1.9096   -8.8059    0.1025 H   0  0  0  0  0  0
    3.3852   -8.3483    0.9350 H   0  0  0  0  0  0
    2.2833  -10.2785    2.0986 H   0  0  0  0  0  0
    0.8110   -9.3221    2.3209 H   0  0  0  0  0  0
    2.2977   -8.8617    3.1590 H   0  0  0  0  0  0
    2.0599    1.8892    1.1609 H   0  0  0  0  0  0
    2.1925    0.4301    2.1641 H   0  0  0  0  0  0
    4.2731    1.2036    1.4814 H   0  0  0  0  0  0
  1  2  1  0  0  0
  1 22  1  0  0  0
  1 23  1  0  0  0
  1 24  1  0  0  0
  2  3  1  0  0  0
  2 25  1  0  0  0
  2 26  1  0  0  0
  3  4  1  0  0  0
  3 27  1  0  0  0
  3 28  1  0  0  0
  4  5  1  0  0  0
  4 29  1  0  0  0
  4 30  1  0  0  0
  5  6  1  0  0  0
  5 31  1  0  0  0
  5 32  1  0  0  0
  6  7  1  0  0  0
  6 33  1  0  0  0
  6 34  1  0  0  0
  7  8  1  0  0  0
  7 35  1  0  0  0
  7 36  1  0  0  0
  8  9  1  0  0  0
  8 37  1  0  0  0
  8 38  1  0  0  0
  9 10  1  0  0  0
  9 39  1  0  0  0
  9 40  1  0  0  0
 10 11  1  0  0  0
 10 41  1  0  0  0
 10 42  1  0  0  0
 11 12  1  0  0  0
 11 20  1  0  0  0
 11 43  1  0  0  0
 12 13  1  0  0  0
 12 44  1  0  0  0
 12 45  1  0  0  0
 13 14  1  0  0  0
 13 46  1  0  0  0
 13 47  1  0  0  0
 14 15  1  0  0  0
 14 48  1  0  0  0
 14 49  1  0  0  0
 15 16  1  0  0  0
 15 50  1  0  0  0
 15 51  1  0  0  0
 16 17  1  0  0  0
 16 52  1  0  0  0
 16 53  1  0  0  0
 17 18  1  0  0  0
 17 54  1  0  0  0
 17 55  1  0  0  0
 18 19  1  0  0  0
 18 56  1  0  0  0
 18 57  1  0  0  0
 19 58  1  0  0  0
 19 59  1  0  0  0
 19 60  1  0  0  0
 20 21  1  0  0  0
 20 61  1  0  0  0
 20 62  1  0  0  0
 21 63  1  0  0  0
M  END
>  <i_m_Spin_multiplicity> (1)
1

>  <s_j_Task> (1)
Single Point

>  <s_j_QM_Method> (1)
DFT(b3lyp-d3)

>  <s_j_QM_Basis> (1)
cc-pvtz(-f)

>  <i_j_Number_of_canonical_orbitals> (1)
854

>  <i_j_Geometry_convergence_category> (1)
3

>  <r_j_Gas_Phase_Energy> (1)
-863.034183243853

>  <r_j_Final_Energy> (1)
-863.034183243853

>  <r_j_HOMO> (1)
-0.273316844643441

>  <r_j_LUMO> (1)
-0.0149451271121679

>  <r_j_Polarizability> (1)
253.755666286488

>  <r_j_QM_Dipole_(debye)> (1)
1.37564991894018

>  <r_j_QM_Dipole_X_(debye)> (1)
-0.379141945170772

>  <r_j_QM_Dipole_Y_(debye)> (1)
0.800587939493924

>  <r_j_QM_Dipole_Z_(debye)> (1)
1.05248422127324

>  <r_j_Lowest_Frequency_(cm-1)> (1)
22.2873951886592

>  <r_j_Highest_Frequency_(cm-1)> (1)
3777.67737100908

>  <r_j_2nd_Lowest_Frequency_(cm-1)> (1)
36.7567021511212

>  <i_j_Num_Negative_Frequencies> (1)
0

>  <r_j_Zero_Point_Energy_(kcal/mol)> (1)
371.629977176469

>  <r_j_Entropy_(cal/mol/K)_298.15K_1.00E+00atm> (1)
169.814156657977

>  <r_j_Enthalpy_(kcal/mol)_298.15K_1.00E+00atm> (1)
16.8852749535938

>  <r_j_Free_Energy_(kcal/mol)_298.15K_1.00E+00atm> (1)
-33.744815853982

>  <r_j_Internal_Energy_(kcal/mol)_298.15K_1.00E+00atm> (1)
16.2927893647665

>  <r_j_Heat_Capacity_(cal/mol/K)_298.15K_1.00E+00atm> (1)
99.2248723334774

>  <r_j_ln(Q)_298.15K_1.00E+00atm> (1)
56.9546609914583

>  <r_j_Total_Internal_Energy_(au)_298.15K_1.00E+00atm> (1)
-862.415988961397

>  <r_j_Total_Enthalpy_(au)_298.15K_1.00E+00atm> (1)
-862.415044775504

>  <r_j_Total_Free_Energy_(au)_298.15K_1.00E+00atm> (1)
-862.495728961526

>  <r_lp_tautomer_probability> (1)
1

>  <r_epik_Ionization_Penalty> (1)
  0.0000

>  <r_epik_Ionization_Penalty_Charging> (1)
  0.0000

>  <r_epik_Ionization_Penalty_Neutral> (1)
  0.0000

>  <r_epik_State_Penalty> (1)
  0.0000

>  <r_epik_Charging_Adjusted_Penalty> (1)
0

>  <i_epik_Tot_Q> (1)
0

>  <i_epik_Tot_abs_Q> (1)
0

>  <s_lp_Force_Field> (1)
S-OPLS

>  <r_lp_Energy> (1)
10.6386

>  <b_lp_Chiralities_Consistent> (1)
1

$$$$
