21572741_Tetramethylcyclopentane
                    3D
 Schrodinger Suite 2021-3.
 27 27  0  0  1  0            999 V2000
   -0.0614    0.0475   -0.0404 C   0  0  0  0  0  0
    1.4823    0.0207    0.0155 C   0  0  0  0  0  0
    2.0503    0.5838   -1.3140 C   0  0  0  0  0  0
    2.0810   -0.6033   -2.3138 C   0  0  0  0  0  0
    1.8516   -1.8813   -1.4635 C   0  0  0  0  0  0
    2.0338   -1.4580    0.0178 C   0  0  0  0  0  0
    3.5360   -1.4998    0.3765 C   0  0  0  0  0  0
    1.2919   -2.3995    0.9778 C   0  0  0  0  0  0
    1.9260    0.8544    1.2265 C   0  0  0  0  0  0
   -0.4099    1.0768   -0.1793 H   0  0  0  0  0  0
   -0.5063   -0.3262    0.8869 H   0  0  0  0  0  0
   -0.4606   -0.5477   -0.8673 H   0  0  0  0  0  0
    1.4552    1.4279   -1.6785 H   0  0  0  0  0  0
    3.0622    0.9700   -1.1502 H   0  0  0  0  0  0
    1.3072   -0.5019   -3.0810 H   0  0  0  0  0  0
    3.0379   -0.6409   -2.8435 H   0  0  0  0  0  0
    0.8366   -2.2636   -1.6170 H   0  0  0  0  0  0
    2.5309   -2.6966   -1.7342 H   0  0  0  0  0  0
    3.9230   -2.5150    0.2360 H   0  0  0  0  0  0
    3.7102   -1.2248    1.4213 H   0  0  0  0  0  0
    4.1345   -0.8315   -0.2501 H   0  0  0  0  0  0
    1.7396   -3.3993    0.9540 H   0  0  0  0  0  0
    0.2360   -2.5076    0.7157 H   0  0  0  0  0  0
    1.3490   -2.0404    2.0121 H   0  0  0  0  0  0
    3.0120    0.9727    1.2704 H   0  0  0  0  0  0
    1.5969    0.3978    2.1672 H   0  0  0  0  0  0
    1.4887    1.8580    1.1800 H   0  0  0  0  0  0
  1  2  1  0  0  0
  1 10  1  0  0  0
  1 11  1  0  0  0
  1 12  1  0  0  0
  2  6  1  0  0  0
  2  3  1  0  0  0
  2  9  1  0  0  0
  3  4  1  0  0  0
  3 13  1  0  0  0
  3 14  1  0  0  0
  4  5  1  0  0  0
  4 15  1  0  0  0
  4 16  1  0  0  0
  5  6  1  0  0  0
  5 17  1  0  0  0
  5 18  1  0  0  0
  6  7  1  0  0  0
  6  8  1  0  0  0
  7 19  1  0  0  0
  7 20  1  0  0  0
  7 21  1  0  0  0
  8 22  1  0  0  0
  8 23  1  0  0  0
  8 24  1  0  0  0
  9 25  1  0  0  0
  9 26  1  0  0  0
  9 27  1  0  0  0
M  END
>  <i_m_Spin_multiplicity> (1)
1

>  <s_j_Task> (1)
Single Point

>  <s_j_QM_Method> (1)
DFT(b3lyp-d3)

>  <s_j_QM_Basis> (1)
cc-pvtz(-f)

>  <i_j_Number_of_canonical_orbitals> (1)
365

>  <i_j_Geometry_convergence_category> (1)
3

>  <r_j_Gas_Phase_Energy> (1)
-353.953602704715

>  <r_j_Final_Energy> (1)
-353.953602704715

>  <r_j_HOMO> (1)
-0.297450716654747

>  <r_j_LUMO> (1)
0.019771153342902

>  <r_j_Polarizability> (1)
103.401967524662

>  <r_j_QM_Dipole_(debye)> (1)
0.0396915153194499

>  <r_j_QM_Dipole_X_(debye)> (1)
0.00554103952477661

>  <r_j_QM_Dipole_Y_(debye)> (1)
0.00186857602980909

>  <r_j_QM_Dipole_Z_(debye)> (1)
-0.0392583964644484

>  <r_j_Lowest_Frequency_(cm-1)> (1)
132.244428516416

>  <r_j_Highest_Frequency_(cm-1)> (1)
3062.17289681711

>  <r_j_2nd_Lowest_Frequency_(cm-1)> (1)
164.831670761107

>  <i_j_Num_Negative_Frequencies> (1)
0

>  <r_j_Zero_Point_Energy_(kcal/mol)> (1)
158.30299306497

>  <r_j_Entropy_(cal/mol/K)_298.15K_1.00E+00atm> (1)
91.5704715750252

>  <r_j_Enthalpy_(kcal/mol)_298.15K_1.00E+00atm> (1)
6.63399589965898

>  <r_j_Free_Energy_(kcal/mol)_298.15K_1.00E+00atm> (1)
-20.6677402004348

>  <r_j_Internal_Energy_(kcal/mol)_298.15K_1.00E+00atm> (1)
6.0415103108317

>  <r_j_Heat_Capacity_(cal/mol/K)_298.15K_1.00E+00atm> (1)
40.3148596502336

>  <r_j_ln(Q)_298.15K_1.00E+00atm> (1)
34.8831103915002

>  <r_j_Total_Internal_Energy_(au)_298.15K_1.00E+00atm> (1)
-353.691703066171

>  <r_j_Total_Enthalpy_(au)_298.15K_1.00E+00atm> (1)
-353.690758880279

>  <r_j_Total_Free_Energy_(au)_298.15K_1.00E+00atm> (1)
-353.734266966459

>  <r_lp_tautomer_probability> (1)
1

>  <r_epik_Ionization_Penalty> (1)
  0.0000

>  <r_epik_Ionization_Penalty_Charging> (1)
  0.0000

>  <r_epik_Ionization_Penalty_Neutral> (1)
  0.0000

>  <r_epik_State_Penalty> (1)
  0.0000

>  <r_epik_Charging_Adjusted_Penalty> (1)
0

>  <i_epik_Tot_Q> (1)
0

>  <i_epik_Tot_abs_Q> (1)
0

>  <s_lp_Force_Field> (1)
S-OPLS

>  <r_lp_Energy> (1)
14.701667

>  <b_lp_Chiralities_Consistent> (1)
1

$$$$
