22015_2,5-Dimethylbenzaldehyde
                    3D
 Schrodinger Suite 2021-3.
 20 20  0  0  1  0            999 V2000
   -0.0295    0.0066    0.0988 C   0  0  0  0  0  0
    1.4797    0.0186    0.0442 C   0  0  0  0  0  0
    2.2092    1.2053    0.0506 C   0  0  0  0  0  0
    3.6129    1.2211    0.0024 C   0  0  0  0  0  0
    4.3393    0.0084   -0.0553 C   0  0  0  0  0  0
    3.5990   -1.1784   -0.0616 C   0  0  0  0  0  0
    2.2062   -1.1778   -0.0136 C   0  0  0  0  0  0
    5.8452   -0.0361   -0.1090 C   0  0  0  0  0  0
    4.2610    2.5498    0.0142 C   0  0  0  0  0  0
    5.4588    2.7704   -0.0244 O   0  0  0  0  0  0
   -0.4399    1.0200    0.1072 H   0  0  0  0  0  0
   -0.3890   -0.5074    0.9976 H   0  0  0  0  0  0
   -0.4530   -0.5197   -0.7641 H   0  0  0  0  0  0
    1.6798    2.1555    0.0944 H   0  0  0  0  0  0
    4.1281   -2.1268   -0.1056 H   0  0  0  0  0  0
    1.6727   -2.1256   -0.0211 H   0  0  0  0  0  0
    6.1986   -1.0705   -0.1440 H   0  0  0  0  0  0
    6.2874    0.4635    0.7575 H   0  0  0  0  0  0
    6.2260    0.5010   -0.9823 H   0  0  0  0  0  0
    3.5385    3.3970    0.0637 H   0  0  0  0  0  0
  1  2  1  0  0  0
  1 11  1  0  0  0
  1 12  1  0  0  0
  1 13  1  0  0  0
  2  7  1  0  0  0
  2  3  2  0  0  0
  3  4  1  0  0  0
  3 14  1  0  0  0
  4  5  2  0  0  0
  4  9  1  0  0  0
  5  6  1  0  0  0
  5  8  1  0  0  0
  6  7  2  0  0  0
  6 15  1  0  0  0
  7 16  1  0  0  0
  8 17  1  0  0  0
  8 18  1  0  0  0
  8 19  1  0  0  0
  9 10  2  0  0  0
  9 20  1  0  0  0
M  END
>  <i_m_Spin_multiplicity> (1)
1

>  <s_j_Task> (1)
Single Point

>  <s_j_QM_Method> (1)
DFT(b3lyp-d3)

>  <s_j_QM_Basis> (1)
cc-pvtz(-f)

>  <i_j_Number_of_canonical_orbitals> (1)
313

>  <i_j_Geometry_convergence_category> (1)
3

>  <r_j_Gas_Phase_Energy> (1)
-424.359432160766

>  <r_j_Final_Energy> (1)
-424.359432160766

>  <r_j_HOMO> (1)
-0.248243384437636

>  <r_j_LUMO> (1)
-0.0659083298684134

>  <r_j_Polarizability> (1)
107.507256597968

>  <r_j_QM_Dipole_(debye)> (1)
3.43488945927765

>  <r_j_QM_Dipole_X_(debye)> (1)
-2.83786433431448

>  <r_j_QM_Dipole_Y_(debye)> (1)
-1.93439898743306

>  <r_j_QM_Dipole_Z_(debye)> (1)
0.0556073277591158

>  <r_j_Lowest_Frequency_(cm-1)> (1)
131.262547540291

>  <r_j_Highest_Frequency_(cm-1)> (1)
3130.21072626441

>  <r_j_2nd_Lowest_Frequency_(cm-1)> (1)
147.015799020438

>  <i_j_Num_Negative_Frequencies> (1)
0

>  <r_j_Zero_Point_Energy_(kcal/mol)> (1)
103.179975715556

>  <r_j_Entropy_(cal/mol/K)_298.15K_1.00E+00atm> (1)
91.6823124524462

>  <r_j_Enthalpy_(kcal/mol)_298.15K_1.00E+00atm> (1)
6.28708852925214

>  <r_j_Free_Energy_(kcal/mol)_298.15K_1.00E+00atm> (1)
-21.0479929284447

>  <r_j_Internal_Energy_(kcal/mol)_298.15K_1.00E+00atm> (1)
5.69460294042487

>  <r_j_Heat_Capacity_(cal/mol/K)_298.15K_1.00E+00atm> (1)
35.2371074787263

>  <r_j_ln(Q)_298.15K_1.00E+00atm> (1)
35.5249027577289

>  <r_j_Total_Internal_Energy_(au)_298.15K_1.00E+00atm> (1)
-424.185929474574

>  <r_j_Total_Enthalpy_(au)_298.15K_1.00E+00atm> (1)
-424.184985288682

>  <r_j_Total_Free_Energy_(au)_298.15K_1.00E+00atm> (1)
-424.228546514073

>  <r_lp_tautomer_probability> (1)
1

>  <r_epik_Ionization_Penalty> (1)
  0.0000

>  <r_epik_Ionization_Penalty_Charging> (1)
  0.0000

>  <r_epik_Ionization_Penalty_Neutral> (1)
  0.0000

>  <r_epik_State_Penalty> (1)
  0.0000

>  <r_epik_Charging_Adjusted_Penalty> (1)
0

>  <i_epik_Tot_Q> (1)
0

>  <i_epik_Tot_abs_Q> (1)
0

>  <s_lp_Force_Field> (1)
S-OPLS

>  <r_lp_Energy> (1)
6.8043

>  <b_lp_Chiralities_Consistent> (1)
1

$$$$
