220273_DEHYDROABIETINE
                    3D
 Schrodinger Suite 2021-3.
 47 49  0  0  1  0            999 V2000
   -7.1004    2.7498   -0.7675 C   0  0  0  0  0  0
   -6.5305    1.4070   -0.2875 C   0  0  1  0  0  0
   -7.0994    0.2644   -1.1507 C   0  0  0  0  0  0
   -6.5410   -1.1078   -0.7639 C   0  0  0  0  0  0
   -5.0064   -1.1151   -0.7498 C   0  0  0  0  0  0
   -4.4018   -0.0057    0.1534 C   0  0  2  0  0  0
   -4.9830    1.3655   -0.3266 C   0  0  2  0  0  0
   -4.2872    2.5285    0.3931 C   0  0  0  0  0  0
   -2.8071    2.5699    0.0065 C   0  0  0  0  0  0
   -2.1333    1.2119    0.0251 C   0  0  0  0  0  0
   -2.8661    0.0125    0.0482 C   0  0  0  0  0  0
   -2.1424   -1.1921    0.0529 C   0  0  0  0  0  0
   -0.7540   -1.2199    0.0163 C   0  0  0  0  0  0
   -0.0170   -0.0288   -0.0176 C   0  0  0  0  0  0
   -0.7323    1.1661   -0.0096 C   0  0  0  0  0  0
    1.5040   -0.0383   -0.0528 C   0  0  0  0  0  0
    2.0368   -0.7196   -1.3265 C   0  0  0  0  0  0
    2.0962   -0.6954    1.2075 C   0  0  0  0  0  0
   -4.7402   -0.3047    1.6380 C   0  0  0  0  0  0
   -6.7022    3.0118   -1.7557 H   0  0  0  0  0  0
   -6.8700    3.5716   -0.0844 H   0  0  0  0  0  0
   -8.1908    2.6939   -0.8544 H   0  0  0  0  0  0
   -6.8629    1.2557    0.7492 H   0  0  0  0  0  0
   -8.1948    0.2607   -1.0872 H   0  0  0  0  0  0
   -6.8504    0.4721   -2.2024 H   0  0  0  0  0  0
   -6.9239   -1.3944    0.2237 H   0  0  0  0  0  0
   -6.9034   -1.8723   -1.4618 H   0  0  0  0  0  0
   -4.6598   -2.1025   -0.4279 H   0  0  0  0  0  0
   -4.6313   -0.9713   -1.7719 H   0  0  0  0  0  0
   -4.7086    1.4511   -1.3921 H   0  0  0  0  0  0
   -4.7471    3.4844    0.1290 H   0  0  0  0  0  0
   -4.3983    2.4222    1.4787 H   0  0  0  0  0  0
   -2.7214    2.9835   -1.0093 H   0  0  0  0  0  0
   -2.2573    3.2613    0.6566 H   0  0  0  0  0  0
   -2.6756   -2.1365    0.0932 H   0  0  0  0  0  0
   -0.2405   -2.1778    0.0189 H   0  0  0  0  0  0
   -0.1852    2.1077   -0.0282 H   0  0  0  0  0  0
    1.8378    1.0076   -0.0706 H   0  0  0  0  0  0
    1.6409   -0.2393   -2.2265 H   0  0  0  0  0  0
    1.7471   -1.7758   -1.3573 H   0  0  0  0  0  0
    3.1310   -0.6733   -1.3641 H   0  0  0  0  0  0
    1.7418   -0.1987    2.1158 H   0  0  0  0  0  0
    3.1909   -0.6480    1.1935 H   0  0  0  0  0  0
    1.8099   -1.7511    1.2713 H   0  0  0  0  0  0
   -5.8150   -0.3041    1.8356 H   0  0  0  0  0  0
   -4.2743    0.4225    2.3079 H   0  0  0  0  0  0
   -4.3511   -1.2904    1.9121 H   0  0  0  0  0  0
  1  2  1  0  0  0
  1 20  1  0  0  0
  1 21  1  0  0  0
  1 22  1  0  0  0
  2  7  1  0  0  0
  2  3  1  0  0  0
  2 23  1  0  0  0
  3  4  1  0  0  0
  3 24  1  0  0  0
  3 25  1  0  0  0
  4  5  1  0  0  0
  4 26  1  0  0  0
  4 27  1  0  0  0
  5  6  1  0  0  0
  5 28  1  0  0  0
  5 29  1  0  0  0
  6 11  1  0  0  0
  6  7  1  0  0  0
  6 19  1  0  0  0
  7  8  1  0  0  0
  7 30  1  0  0  0
  8  9  1  0  0  0
  8 31  1  0  0  0
  8 32  1  0  0  0
  9 10  1  0  0  0
  9 33  1  0  0  0
  9 34  1  0  0  0
 10 15  1  0  0  0
 10 11  2  0  0  0
 11 12  1  0  0  0
 12 13  2  0  0  0
 12 35  1  0  0  0
 13 14  1  0  0  0
 13 36  1  0  0  0
 14 15  2  0  0  0
 14 16  1  0  0  0
 15 37  1  0  0  0
 16 17  1  0  0  0
 16 18  1  0  0  0
 16 38  1  0  0  0
 17 39  1  0  0  0
 17 40  1  0  0  0
 17 41  1  0  0  0
 18 42  1  0  0  0
 18 43  1  0  0  0
 18 44  1  0  0  0
 19 45  1  0  0  0
 19 46  1  0  0  0
 19 47  1  0  0  0
M  END
> <i_m_Spin_multiplicity>
1

> <s_j_Task>
Single Point

> <s_j_QM_Method>
DFT(b3lyp-d3)

> <s_j_QM_Basis>
cc-pvtz(-f)

> <i_j_Number_of_canonical_orbitals>
676

> <i_j_Geometry_convergence_category>
3

> <r_j_Gas_Phase_Energy>
-741.201958968686

> <r_j_Final_Energy>
-741.201958968686

> <r_j_HOMO>
-0.228226754677646

> <r_j_LUMO>
-0.00583628039568906

> <r_j_Polarizability>
217.636535057312

> <r_j_QM_Dipole_(debye)>
0.44224191067341

> <r_j_QM_Dipole_X_(debye)>
-0.336051561962279

> <r_j_QM_Dipole_Y_(debye)>
0.283946410167592

> <r_j_QM_Dipole_Z_(debye)>
0.0449632228795739

> <r_j_Lowest_Frequency_(cm-1)>
56.5359895937647

> <r_j_Highest_Frequency_(cm-1)>
3141.05060694958

> <r_j_2nd_Lowest_Frequency_(cm-1)>
77.1815696522562

> <i_j_Num_Negative_Frequencies>
0

> <r_j_Zero_Point_Energy_(kcal/mol)>
267.750786631361

> <r_j_Entropy_(cal/mol/K)_298.15K_1.00E+00atm>
127.447356864523

> <r_j_Enthalpy_(kcal/mol)_298.15K_1.00E+00atm>
11.48877077387

> <r_j_Free_Energy_(kcal/mol)_298.15K_1.00E+00atm>
-26.5096586752874

> <r_j_Internal_Energy_(kcal/mol)_298.15K_1.00E+00atm>
10.8962851850428

> <r_j_Heat_Capacity_(cal/mol/K)_298.15K_1.00E+00atm>
73.9670545063037

> <r_j_ln(Q)_298.15K_1.00E+00atm>
44.7431282299352

> <r_j_Total_Internal_Energy_(au)_298.15K_1.00E+00atm>
-740.75790659157

> <r_j_Total_Enthalpy_(au)_298.15K_1.00E+00atm>
-740.756962405678

> <r_j_Total_Free_Energy_(au)_298.15K_1.00E+00atm>
-740.817516757868

> <r_lp_tautomer_probability>
1

> <r_epik_Ionization_Penalty>
  0.0000

> <r_epik_Ionization_Penalty_Charging>
  0.0000

> <r_epik_Ionization_Penalty_Neutral>
  0.0000

> <r_epik_State_Penalty>
  0.0000

> <r_epik_Charging_Adjusted_Penalty>
0

> <i_epik_Tot_Q>
0

> <i_epik_Tot_abs_Q>
0

> <s_lp_Force_Field>
S-OPLS

> <r_lp_Energy>
43.3686

> <b_lp_Chiralities_Consistent>
1

$$$$
