220995_Conidendrin
                    3D
 Schrodinger Suite 2021-3.
 46 49  0  0  1  0            999 V2000
   -2.4970   -2.4048   -5.6069 C   0  0  0  0  0  0
   -1.9071   -3.0214   -4.4737 O   0  0  0  0  0  0
   -1.4878   -2.2192   -3.4564 C   0  0  0  0  0  0
   -0.9013   -2.8858   -2.3547 C   0  0  0  0  0  0
   -0.4429   -2.1394   -1.2812 C   0  0  0  0  0  0
   -0.5415   -0.7372   -1.2438 C   0  0  0  0  0  0
    0.0483   -0.0149   -0.0283 C   0  0  0  0  0  0
   -0.5239    1.4143    0.0081 C   0  0  0  0  0  0
    0.0667    2.4854    0.9269 C   0  0  0  0  0  0
   -0.3568    3.7385    0.3243 O   0  0  0  0  0  0
   -0.6654    3.5520   -0.9962 C   0  0  0  0  0  0
   -1.0718    4.4406   -1.6991 O   0  0  0  0  0  0
   -0.4002    2.1002   -1.3487 C   0  0  0  0  0  0
   -1.2933    1.4401   -2.3840 C   0  0  0  0  0  0
   -1.1200   -0.0737   -2.3342 C   0  0  0  0  0  0
   -1.5848   -0.8329   -3.4254 C   0  0  0  0  0  0
    1.5749   -0.0596   -0.0012 C   0  0  0  0  0  0
    2.3289   -0.0359   -1.1872 C   0  0  0  0  0  0
    3.7223   -0.0117   -1.1628 C   0  0  0  0  0  0
    4.3946   -0.0166    0.0805 C   0  0  0  0  0  0
    3.6497   -0.0542    1.2542 C   0  0  0  0  0  0
    2.2518   -0.0771    1.2168 C   0  0  0  0  0  0
    5.7587    0.0061    0.0507 O   0  0  0  0  0  0
    4.5222    0.0118   -2.2635 O   0  0  0  0  0  0
    3.8972    0.0227   -3.5382 C   0  0  0  0  0  0
   -0.8175   -4.2466   -2.4222 O   0  0  0  0  0  0
   -2.7544   -3.2159   -6.2897 H   0  0  0  0  0  0
   -1.7986   -1.7198   -6.1066 H   0  0  0  0  0  0
   -3.4085   -1.8528   -5.3412 H   0  0  0  0  0  0
    0.0271   -2.6553   -0.4452 H   0  0  0  0  0  0
   -0.2982   -0.5361    0.8732 H   0  0  0  0  0  0
   -1.5957    1.3304    0.2378 H   0  0  0  0  0  0
   -0.3166    2.4668    1.9497 H   0  0  0  0  0  0
    1.1607    2.4530    0.9498 H   0  0  0  0  0  0
    0.6505    2.0468   -1.6721 H   0  0  0  0  0  0
   -2.3404    1.7020   -2.1785 H   0  0  0  0  0  0
   -1.0767    1.8208   -3.3875 H   0  0  0  0  0  0
   -2.0293   -0.3075   -4.2632 H   0  0  0  0  0  0
    1.8069   -0.0624   -2.1349 H   0  0  0  0  0  0
    4.1694   -0.0684    2.2099 H   0  0  0  0  0  0
    1.6927   -0.1046    2.1486 H   0  0  0  0  0  0
    6.0884    0.0051    0.9587 H   0  0  0  0  0  0
    4.7073    0.0486   -4.2682 H   0  0  0  0  0  0
    3.2620    0.9090   -3.6709 H   0  0  0  0  0  0
    3.2902   -0.8777   -3.7014 H   0  0  0  0  0  0
   -0.3902   -4.5690   -1.6179 H   0  0  0  0  0  0
  1  2  1  0  0  0
  1 27  1  0  0  0
  1 28  1  0  0  0
  1 29  1  0  0  0
  2  3  1  0  0  0
  3 16  1  0  0  0
  3  4  2  0  0  0
  4  5  1  0  0  0
  4 26  1  0  0  0
  5  6  2  0  0  0
  5 30  1  0  0  0
  6 15  1  0  0  0
  6  7  1  0  0  0
  7  8  1  0  0  0
  7 17  1  0  0  0
  7 31  1  0  0  0
  8 13  1  0  0  0
  8  9  1  0  0  0
  8 32  1  0  0  0
  9 10  1  0  0  0
  9 33  1  0  0  0
  9 34  1  0  0  0
 10 11  1  0  0  0
 11 12  2  0  0  0
 11 13  1  0  0  0
 13 14  1  0  0  0
 13 35  1  0  0  0
 14 15  1  0  0  0
 14 36  1  0  0  0
 14 37  1  0  0  0
 15 16  2  0  0  0
 16 38  1  0  0  0
 17 22  1  0  0  0
 17 18  2  0  0  0
 18 19  1  0  0  0
 18 39  1  0  0  0
 19 20  2  0  0  0
 19 24  1  0  0  0
 20 21  1  0  0  0
 20 23  1  0  0  0
 21 22  2  0  0  0
 21 40  1  0  0  0
 22 41  1  0  0  0
 23 42  1  0  0  0
 24 25  1  0  0  0
 25 43  1  0  0  0
 25 44  1  0  0  0
 25 45  1  0  0  0
 26 46  1  0  0  0
M  END
>  <i_m_Spin_multiplicity> (1)
1

>  <s_j_Task> (1)
Single Point

>  <s_j_QM_Method> (1)
DFT(b3lyp-d3)

>  <s_j_QM_Basis> (1)
cc-pvtz(-f)

>  <i_j_Number_of_canonical_orbitals> (1)
762

>  <i_j_Geometry_convergence_category> (1)
3

>  <r_j_Gas_Phase_Energy> (1)
-1225.9431690255

>  <r_j_Final_Energy> (1)
-1225.9431690255

>  <r_j_HOMO> (1)
-0.208868429855663

>  <r_j_LUMO> (1)
-0.0157987505331402

>  <r_j_Polarizability> (1)
246.907330908705

>  <r_j_QM_Dipole_(debye)> (1)
4.34868290662752

>  <r_j_QM_Dipole_X_(debye)> (1)
1.01860733877474

>  <r_j_QM_Dipole_Y_(debye)> (1)
-4.01369681460836

>  <r_j_QM_Dipole_Z_(debye)> (1)
1.32805120089225

>  <r_j_Lowest_Frequency_(cm-1)> (1)
36.7323193208446

>  <r_j_Highest_Frequency_(cm-1)> (1)
3772.56315795687

>  <r_j_2nd_Lowest_Frequency_(cm-1)> (1)
48.2946492895005

>  <i_j_Num_Negative_Frequencies> (1)
0

>  <r_j_Zero_Point_Energy_(kcal/mol)> (1)
231.714759588211

>  <r_j_Entropy_(cal/mol/K)_298.15K_1.00E+00atm> (1)
148.603361885811

>  <r_j_Enthalpy_(kcal/mol)_298.15K_1.00E+00atm> (1)
14.2109414916942

>  <r_j_Free_Energy_(kcal/mol)_298.15K_1.00E+00atm> (1)
-30.0951508545604

>  <r_j_Internal_Energy_(kcal/mol)_298.15K_1.00E+00atm> (1)
13.6184559028669

>  <r_j_Heat_Capacity_(cal/mol/K)_298.15K_1.00E+00atm> (1)
88.3503551598024

>  <r_j_ln(Q)_298.15K_1.00E+00atm> (1)
50.7947390148826

>  <r_j_Total_Internal_Energy_(au)_298.15K_1.00E+00atm> (1)
-1225.55220565806

>  <r_j_Total_Enthalpy_(au)_298.15K_1.00E+00atm> (1)
-1225.55126147217

>  <r_j_Total_Free_Energy_(au)_298.15K_1.00E+00atm> (1)
-1225.62186772509

>  <r_lp_tautomer_probability> (1)
1

>  <r_epik_Ionization_Penalty> (1)
  0.0013

>  <r_epik_Ionization_Penalty_Charging> (1)
  0.0000

>  <r_epik_Ionization_Penalty_Neutral> (1)
  0.0013

>  <r_epik_State_Penalty> (1)
  0.0000

>  <r_epik_Charging_Adjusted_Penalty> (1)
0

>  <i_epik_Tot_Q> (1)
0

>  <i_epik_Tot_abs_Q> (1)
0

>  <s_lp_Force_Field> (1)
S-OPLS

>  <r_lp_Energy> (1)
33.6782

>  <b_lp_Chiralities_Consistent> (1)
1

>  <s_epik_Chemistry_Notes> (1)
This compound has an ester and may undergo hydrolysis at high or low pH.

$$$$
