221023_Betulin
                    3D
 Schrodinger Suite 2021-3.
 82 86  0  0  1  0            999 V2000
   -0.5685   -1.5001   -1.1139 C   0  0  0  0  0  0
   -0.0803   -0.1804   -0.5630 C   0  0  0  0  0  0
   -0.9034    0.8685   -0.4461 C   0  0  0  0  0  0
    1.3763   -0.0790   -0.1581 C   0  0  0  0  0  0
    1.7792   -0.9755    1.0711 C   0  0  0  0  0  0
    3.1395   -1.6469    0.7102 C   0  0  0  0  0  0
    3.6924   -0.8053   -0.4686 C   0  0  0  0  0  0
    2.3773   -0.5427   -1.2318 C   0  0  0  0  0  0
    2.4270    0.1554   -2.6036 C   0  0  0  0  0  0
    2.1886    1.6618   -2.7180 C   0  0  0  0  0  0
    2.2546    2.0961   -4.2162 C   0  0  0  0  0  0
    2.0993    0.9055   -5.2036 C   0  0  0  0  0  0
    1.8587    1.3383   -6.7273 C   0  0  0  0  0  0
    1.1060    2.6965   -6.7921 C   0  0  0  0  0  0
    0.9791    3.2540   -8.2156 C   0  0  0  0  0  0
    2.3637    3.4651   -8.8375 C   0  0  0  0  0  0
    3.2048    2.1639   -8.8834 C   0  0  0  0  0  0
    3.2348    1.5148   -7.4557 C   0  0  0  0  0  0
    4.0509    0.2150   -7.3818 C   0  0  0  0  0  0
    4.4122   -0.0749   -5.9253 C   0  0  0  0  0  0
    3.1999   -0.2440   -4.9763 C   0  0  0  0  0  0
    3.6868   -0.2375   -3.4419 C   0  0  0  0  0  0
    4.2003   -1.6066   -2.9101 C   0  0  0  0  0  0
    4.6803   -1.5426   -1.4291 C   0  0  0  0  0  0
    4.8697    0.7505   -3.2504 C   0  0  0  0  0  0
    2.5453   -1.6105   -5.2854 C   0  0  0  0  0  0
    2.6468    1.2354   -9.9832 C   0  0  0  0  0  0
    4.6419    2.5485   -9.3093 C   0  0  0  0  0  0
    3.1043    4.4255   -8.0699 O   0  0  0  0  0  0
    0.9306    0.2860   -7.4012 C   0  0  0  0  0  0
    4.3174    0.4633    0.1718 C   0  0  0  0  0  0
    5.5138    0.1826    0.8928 O   0  0  0  0  0  0
   -0.1361   -1.7008   -2.1021 H   0  0  0  0  0  0
   -1.6565   -1.5110   -1.2189 H   0  0  0  0  0  0
   -0.2805   -2.3404   -0.4713 H   0  0  0  0  0  0
   -1.9523    0.8087   -0.7238 H   0  0  0  0  0  0
   -0.5553    1.8252   -0.0657 H   0  0  0  0  0  0
    1.5706    0.9709    0.0856 H   0  0  0  0  0  0
    1.8566   -0.3614    1.9729 H   0  0  0  0  0  0
    1.0130   -1.7272    1.2813 H   0  0  0  0  0  0
    3.8391   -1.6714    1.5501 H   0  0  0  0  0  0
    2.9790   -2.6810    0.3834 H   0  0  0  0  0  0
    2.0521   -1.5627   -1.4800 H   0  0  0  0  0  0
    1.5724   -0.2959   -3.1182 H   0  0  0  0  0  0
    1.2011    1.8970   -2.3074 H   0  0  0  0  0  0
    2.9128    2.2317   -2.1253 H   0  0  0  0  0  0
    1.4434    2.8043   -4.3819 H   0  0  0  0  0  0
    3.1741    2.6507   -4.4281 H   0  0  0  0  0  0
    1.1432    0.4511   -4.9191 H   0  0  0  0  0  0
    0.1147    2.5980   -6.3310 H   0  0  0  0  0  0
    1.6553    3.4485   -6.2236 H   0  0  0  0  0  0
    0.3756    2.6116   -8.8643 H   0  0  0  0  0  0
    0.4500    4.2172   -8.1854 H   0  0  0  0  0  0
    2.2510    3.8319   -9.8721 H   0  0  0  0  0  0
    3.7749    2.2533   -6.8462 H   0  0  0  0  0  0
    3.5088   -0.6223   -7.8334 H   0  0  0  0  0  0
    4.9796    0.3115   -7.9517 H   0  0  0  0  0  0
    5.0450   -0.9694   -5.8548 H   0  0  0  0  0  0
    5.0337    0.7622   -5.6024 H   0  0  0  0  0  0
    3.4141   -2.3628   -2.9844 H   0  0  0  0  0  0
    5.0289   -1.9688   -3.5309 H   0  0  0  0  0  0
    5.6706   -1.0724   -1.4036 H   0  0  0  0  0  0
    4.8454   -2.5676   -1.0786 H   0  0  0  0  0  0
    5.7938    0.3127   -3.6385 H   0  0  0  0  0  0
    5.0471    0.9735   -2.2032 H   0  0  0  0  0  0
    4.7283    1.7053   -3.7527 H   0  0  0  0  0  0
    3.2730   -2.4235   -5.2149 H   0  0  0  0  0  0
    2.1300   -1.6435   -6.2902 H   0  0  0  0  0  0
    1.7259   -1.8337   -4.5937 H   0  0  0  0  0  0
    3.1998    0.2920  -10.0078 H   0  0  0  0  0  0
    2.7650    1.7069  -10.9654 H   0  0  0  0  0  0
    1.5912    0.9941   -9.8604 H   0  0  0  0  0  0
    5.2393    1.6636   -9.5463 H   0  0  0  0  0  0
    5.1523    3.1195   -8.5316 H   0  0  0  0  0  0
    4.6113    3.1711  -10.2106 H   0  0  0  0  0  0
    2.5633    5.2224   -7.9989 H   0  0  0  0  0  0
    0.3681    0.7108   -8.2335 H   0  0  0  0  0  0
    0.1922   -0.0850   -6.6840 H   0  0  0  0  0  0
    1.4632   -0.5774   -7.8006 H   0  0  0  0  0  0
    4.4777    1.2583   -0.5648 H   0  0  0  0  0  0
    3.6346    0.8757    0.9185 H   0  0  0  0  0  0
    6.1864   -0.0893    0.2554 H   0  0  0  0  0  0
  1  2  1  0  0  0
  1 33  1  0  0  0
  1 34  1  0  0  0
  1 35  1  0  0  0
  2  3  2  0  0  0
  2  4  1  0  0  0
  3 36  1  0  0  0
  3 37  1  0  0  0
  4  8  1  0  0  0
  4  5  1  0  0  0
  4 38  1  0  0  0
  5  6  1  0  0  0
  5 39  1  0  0  0
  5 40  1  0  0  0
  6  7  1  0  0  0
  6 41  1  0  0  0
  6 42  1  0  0  0
  7 24  1  0  0  0
  7  8  1  0  0  0
  7 31  1  0  0  0
  8  9  1  0  0  0
  8 43  1  0  0  0
  9 22  1  0  0  0
  9 10  1  0  0  0
  9 44  1  0  0  0
 10 11  1  0  0  0
 10 45  1  0  0  0
 10 46  1  0  0  0
 11 12  1  0  0  0
 11 47  1  0  0  0
 11 48  1  0  0  0
 12 21  1  0  0  0
 12 13  1  0  0  0
 12 49  1  0  0  0
 13 18  1  0  0  0
 13 14  1  0  0  0
 13 30  1  0  0  0
 14 15  1  0  0  0
 14 50  1  0  0  0
 14 51  1  0  0  0
 15 16  1  0  0  0
 15 52  1  0  0  0
 15 53  1  0  0  0
 16 17  1  0  0  0
 16 29  1  0  0  0
 16 54  1  0  0  0
 17 18  1  0  0  0
 17 27  1  0  0  0
 17 28  1  0  0  0
 18 19  1  0  0  0
 18 55  1  0  0  0
 19 20  1  0  0  0
 19 56  1  0  0  0
 19 57  1  0  0  0
 20 21  1  0  0  0
 20 58  1  0  0  0
 20 59  1  0  0  0
 21 22  1  0  0  0
 21 26  1  0  0  0
 22 23  1  0  0  0
 22 25  1  0  0  0
 23 24  1  0  0  0
 23 60  1  0  0  0
 23 61  1  0  0  0
 24 62  1  0  0  0
 24 63  1  0  0  0
 25 64  1  0  0  0
 25 65  1  0  0  0
 25 66  1  0  0  0
 26 67  1  0  0  0
 26 68  1  0  0  0
 26 69  1  0  0  0
 27 70  1  0  0  0
 27 71  1  0  0  0
 27 72  1  0  0  0
 28 73  1  0  0  0
 28 74  1  0  0  0
 28 75  1  0  0  0
 29 76  1  0  0  0
 30 77  1  0  0  0
 30 78  1  0  0  0
 30 79  1  0  0  0
 31 32  1  0  0  0
 31 80  1  0  0  0
 31 81  1  0  0  0
 32 82  1  0  0  0
M  END
>  <i_m_Spin_multiplicity> (1)
1

>  <s_j_Task> (1)
Single Point

>  <s_j_QM_Method> (1)
DFT(b3lyp-d3)

>  <s_j_QM_Basis> (1)
cc-pvtz(-f)

>  <i_j_Number_of_canonical_orbitals> (1)
1160

>  <i_j_Geometry_convergence_category> (1)
3

>  <r_j_Gas_Phase_Energy> (1)
-1324.23040997455

>  <r_j_Final_Energy> (1)
-1324.23040997455

>  <r_j_HOMO> (1)
-0.211226920528647

>  <r_j_LUMO> (1)
0.0156714269706858

>  <r_j_Polarizability> (1)
336.839635336204

>  <r_j_QM_Dipole_(debye)> (1)
2.55616278885008

>  <r_j_QM_Dipole_X_(debye)> (1)
-1.31022241356987

>  <r_j_QM_Dipole_Y_(debye)> (1)
-0.0820826641428642

>  <r_j_QM_Dipole_Z_(debye)> (1)
-2.19329611916133

>  <r_j_Lowest_Frequency_(cm-1)> (1)
47.5114482707101

>  <r_j_Highest_Frequency_(cm-1)> (1)
3763.30992484367

>  <r_j_2nd_Lowest_Frequency_(cm-1)> (1)
53.8325257046928

>  <i_j_Num_Negative_Frequencies> (1)
0

>  <r_j_Zero_Point_Energy_(kcal/mol)> (1)
473.599566766589

>  <r_j_Entropy_(cal/mol/K)_298.15K_1.00E+00atm> (1)
176.483848312877

>  <r_j_Enthalpy_(kcal/mol)_298.15K_1.00E+00atm> (1)
19.3698655567231

>  <r_j_Free_Energy_(kcal/mol)_298.15K_1.00E+00atm> (1)
-33.2487938177612

>  <r_j_Internal_Energy_(kcal/mol)_298.15K_1.00E+00atm> (1)
18.7773799678958

>  <r_j_Heat_Capacity_(cal/mol/K)_298.15K_1.00E+00atm> (1)
132.09667248693

>  <r_j_ln(Q)_298.15K_1.00E+00atm> (1)
56.1174726351937

>  <r_j_Total_Internal_Energy_(au)_298.15K_1.00E+00atm> (1)
-1323.44575735929

>  <r_j_Total_Enthalpy_(au)_298.15K_1.00E+00atm> (1)
-1323.4448131734

>  <r_j_Total_Free_Energy_(au)_298.15K_1.00E+00atm> (1)
-1323.52866634517

>  <r_lp_tautomer_probability> (1)
1

>  <r_epik_Ionization_Penalty> (1)
  0.0000

>  <r_epik_Ionization_Penalty_Charging> (1)
  0.0000

>  <r_epik_Ionization_Penalty_Neutral> (1)
  0.0000

>  <r_epik_State_Penalty> (1)
  0.0000

>  <r_epik_Charging_Adjusted_Penalty> (1)
0

>  <i_epik_Tot_Q> (1)
0

>  <i_epik_Tot_abs_Q> (1)
0

>  <s_lp_Force_Field> (1)
S-OPLS

>  <r_lp_Energy> (1)
119.507

>  <b_lp_Chiralities_Consistent> (1)
1

$$$$
