2214_Acetovanillone
                    3D
 Schrodinger Suite 2021-3.
 22 22  0  0  1  0            999 V2000
   -0.8696   -1.2176   -0.0001 C   0  0  0  0  0  0
   -0.0225    0.0502    0.0000 C   0  0  0  0  0  0
   -0.5971    1.1315    0.0002 O   0  0  0  0  0  0
    1.4691   -0.0181    0.0000 C   0  0  0  0  0  0
    2.1948   -1.2258    0.0000 C   0  0  0  0  0  0
    3.5863   -1.2299    0.0000 C   0  0  0  0  0  0
    4.2815    0.0019    0.0000 C   0  0  0  0  0  0
    3.5628    1.1976    0.0000 C   0  0  0  0  0  0
    2.1729    1.1913    0.0000 C   0  0  0  0  0  0
    5.6394   -0.0539    0.0000 O   0  0  0  0  0  0
    4.3718   -2.3433    0.0001 O   0  0  0  0  0  0
    3.7308   -3.6084    0.0001 C   0  0  0  0  0  0
   -0.3166   -2.1567   -0.0005 H   0  0  0  0  0  0
   -1.5197   -1.1893   -0.8795 H   0  0  0  0  0  0
   -1.5193   -1.1898    0.8797 H   0  0  0  0  0  0
    1.6698   -2.1706    0.0000 H   0  0  0  0  0  0
    4.1074    2.1396   -0.0001 H   0  0  0  0  0  0
    1.6097    2.1172    0.0000 H   0  0  0  0  0  0
    5.9887    0.8473   -0.0001 H   0  0  0  0  0  0
    4.5308   -4.3499    0.0001 H   0  0  0  0  0  0
    3.1084   -3.7488   -0.8942 H   0  0  0  0  0  0
    3.1083   -3.7488    0.8943 H   0  0  0  0  0  0
  1  2  1  0  0  0
  1 13  1  0  0  0
  1 14  1  0  0  0
  1 15  1  0  0  0
  2  3  2  0  0  0
  2  4  1  0  0  0
  4  9  1  0  0  0
  4  5  2  0  0  0
  5  6  1  0  0  0
  5 16  1  0  0  0
  6  7  2  0  0  0
  6 11  1  0  0  0
  7  8  1  0  0  0
  7 10  1  0  0  0
  8  9  2  0  0  0
  8 17  1  0  0  0
  9 18  1  0  0  0
 10 19  1  0  0  0
 11 12  1  0  0  0
 12 20  1  0  0  0
 12 21  1  0  0  0
 12 22  1  0  0  0
M  END
>  <i_m_Spin_multiplicity> (1)
1

>  <s_j_Task> (1)
Single Point

>  <s_j_QM_Method> (1)
DFT(b3lyp-d3)

>  <s_j_QM_Basis> (1)
cc-pvtz(-f)

>  <i_j_Number_of_canonical_orbitals> (1)
359

>  <i_j_Geometry_convergence_category> (1)
0

>  <r_j_Gas_Phase_Energy> (1)
-574.845036660095

>  <r_j_Final_Energy> (1)
-574.845036660095

>  <r_j_HOMO> (1)
-0.2269752081517

>  <r_j_LUMO> (1)
-0.0583580218112505

>  <r_j_Polarizability> (1)
118.730354133602

>  <r_j_QM_Dipole_(debye)> (1)
2.90134298790974

>  <r_j_QM_Dipole_X_(debye)> (1)
2.00370071944897

>  <r_j_QM_Dipole_Y_(debye)> (1)
-2.09832654214509

>  <r_j_QM_Dipole_Z_(debye)> (1)
-0.000531885454433371

>  <r_j_Lowest_Frequency_(cm-1)> (1)
72.2481279402722

>  <r_j_Highest_Frequency_(cm-1)> (1)
3766.42858828105

>  <r_j_2nd_Lowest_Frequency_(cm-1)> (1)
107.790423331187

>  <i_j_Num_Negative_Frequencies> (1)
0

>  <r_j_Zero_Point_Energy_(kcal/mol)> (1)
109.200615161607

>  <r_j_Entropy_(cal/mol/K)_298.15K_1.00E+00atm> (1)
102.972047717297

>  <r_j_Enthalpy_(kcal/mol)_298.15K_1.00E+00atm> (1)
7.63264032347231

>  <r_j_Free_Energy_(kcal/mol)_298.15K_1.00E+00atm> (1)
-23.0684757034399

>  <r_j_Internal_Energy_(kcal/mol)_298.15K_1.00E+00atm> (1)
7.04015473464504

>  <r_j_Heat_Capacity_(cal/mol/K)_298.15K_1.00E+00atm> (1)
42.779526975789

>  <r_j_ln(Q)_298.15K_1.00E+00atm> (1)
38.93508321291

>  <r_j_Total_Internal_Energy_(au)_298.15K_1.00E+00atm> (1)
-574.659795200877

>  <r_j_Total_Enthalpy_(au)_298.15K_1.00E+00atm> (1)
-574.658851014985

>  <r_j_Total_Free_Energy_(au)_298.15K_1.00E+00atm> (1)
-574.707776357939

>  <r_lp_tautomer_probability> (1)
0.99995

>  <r_epik_Ionization_Penalty> (1)
  0.0430

>  <r_epik_Ionization_Penalty_Charging> (1)
  0.0000

>  <r_epik_Ionization_Penalty_Neutral> (1)
  0.0430

>  <r_epik_State_Penalty> (1)
  0.0364

>  <r_epik_Charging_Adjusted_Penalty> (1)
0.0363694

>  <i_epik_Tot_Q> (1)
0

>  <i_epik_Tot_abs_Q> (1)
0

>  <s_lp_Force_Field> (1)
S-OPLS

>  <r_lp_Energy> (1)
15.0172

>  <b_lp_Chiralities_Consistent> (1)
1

$$$$
