22202_3-methylnonane
                    3D
 Schrodinger Suite 2021-3.
 32 31  0  0  1  0            999 V2000
   -4.1911    3.0091   -0.0434 C   0  0  0  0  0  0
   -2.6610    2.9439   -0.0623 C   0  0  0  0  0  0
   -2.1195    1.5124    0.0293 C   0  0  0  0  0  0
   -0.5887    1.4378    0.0148 C   0  0  0  0  0  0
   -0.0460    0.0061    0.0961 C   0  0  0  0  0  0
    1.4874   -0.0513    0.1035 C   0  0  0  0  0  0
    2.0908   -1.4678    0.0319 C   0  0  0  0  0  0
    1.6463   -2.3399    1.2164 C   0  0  0  0  0  0
    3.6314   -1.4319   -0.0428 C   0  0  0  0  0  0
    4.2074   -0.7479   -1.2877 C   0  0  0  0  0  0
   -4.5519    4.0407   -0.1113 H   0  0  0  0  0  0
   -4.5924    2.5752    0.8798 H   0  0  0  0  0  0
   -4.6195    2.4496   -0.8830 H   0  0  0  0  0  0
   -2.2837    3.4144   -0.9806 H   0  0  0  0  0  0
   -2.2569    3.5367    0.7698 H   0  0  0  0  0  0
   -2.4987    1.0391    0.9466 H   0  0  0  0  0  0
   -2.5211    0.9187   -0.8046 H   0  0  0  0  0  0
   -0.2101    1.9193   -0.8983 H   0  0  0  0  0  0
   -0.1888    2.0256    0.8537 H   0  0  0  0  0  0
   -0.4475   -0.4743    0.9973 H   0  0  0  0  0  0
   -0.4278   -0.5758   -0.7555 H   0  0  0  0  0  0
    1.8539    0.5391   -0.7455 H   0  0  0  0  0  0
    1.8655    0.4497    1.0076 H   0  0  0  0  0  0
    1.7246   -1.9398   -0.8938 H   0  0  0  0  0  0
    1.9496   -1.8838    2.1672 H   0  0  0  0  0  0
    2.1026   -3.3345    1.1651 H   0  0  0  0  0  0
    0.5615   -2.4765    1.2439 H   0  0  0  0  0  0
    4.0185   -0.9397    0.8612 H   0  0  0  0  0  0
    4.0028   -2.4646   -0.0052 H   0  0  0  0  0  0
    5.2972   -0.8479   -1.3199 H   0  0  0  0  0  0
    3.9777    0.3217   -1.3148 H   0  0  0  0  0  0
    3.8051   -1.1968   -2.2035 H   0  0  0  0  0  0
  1  2  1  0  0  0
  1 11  1  0  0  0
  1 12  1  0  0  0
  1 13  1  0  0  0
  2  3  1  0  0  0
  2 14  1  0  0  0
  2 15  1  0  0  0
  3  4  1  0  0  0
  3 16  1  0  0  0
  3 17  1  0  0  0
  4  5  1  0  0  0
  4 18  1  0  0  0
  4 19  1  0  0  0
  5  6  1  0  0  0
  5 20  1  0  0  0
  5 21  1  0  0  0
  6  7  1  0  0  0
  6 22  1  0  0  0
  6 23  1  0  0  0
  7  8  1  0  0  0
  7  9  1  0  0  0
  7 24  1  0  0  0
  8 25  1  0  0  0
  8 26  1  0  0  0
  8 27  1  0  0  0
  9 10  1  0  0  0
  9 28  1  0  0  0
  9 29  1  0  0  0
 10 30  1  0  0  0
 10 31  1  0  0  0
 10 32  1  0  0  0
M  END
>  <i_m_Spin_multiplicity> (1)
1

>  <s_j_Task> (1)
Single Point

>  <s_j_QM_Method> (1)
DFT(b3lyp-d3)

>  <s_j_QM_Basis> (1)
cc-pvtz(-f)

>  <i_j_Number_of_canonical_orbitals> (1)
426

>  <i_j_Geometry_convergence_category> (1)
0

>  <r_j_Gas_Phase_Energy> (1)
-394.499471007202

>  <r_j_Final_Energy> (1)
-394.499471007202

>  <r_j_HOMO> (1)
-0.295616959450061

>  <r_j_LUMO> (1)
0.0266860601884212

>  <r_j_Polarizability> (1)
124.68761305175

>  <r_j_QM_Dipole_(debye)> (1)
0.061445274426447

>  <r_j_QM_Dipole_X_(debye)> (1)
0.0383212182160483

>  <r_j_QM_Dipole_Y_(debye)> (1)
-0.00315234694066642

>  <r_j_QM_Dipole_Z_(debye)> (1)
-0.0479277444967428

>  <r_j_Lowest_Frequency_(cm-1)> (1)
65.2674660202738

>  <r_j_Highest_Frequency_(cm-1)> (1)
3056.50804357248

>  <r_j_2nd_Lowest_Frequency_(cm-1)> (1)
83.9887885750652

>  <i_j_Num_Negative_Frequencies> (1)
0

>  <r_j_Zero_Point_Energy_(kcal/mol)> (1)
189.655038746471

>  <r_j_Entropy_(cal/mol/K)_298.15K_1.00E+00atm> (1)
108.728326893016

>  <r_j_Enthalpy_(kcal/mol)_298.15K_1.00E+00atm> (1)
8.57153499492341

>  <r_j_Free_Energy_(kcal/mol)_298.15K_1.00E+00atm> (1)
-23.8458156682294

>  <r_j_Internal_Energy_(kcal/mol)_298.15K_1.00E+00atm> (1)
7.97904940609614

>  <r_j_Heat_Capacity_(cal/mol/K)_298.15K_1.00E+00atm> (1)
48.1944192750838

>  <r_j_ln(Q)_298.15K_1.00E+00atm> (1)
40.247081309485

>  <r_j_Total_Internal_Energy_(au)_298.15K_1.00E+00atm> (1)
-394.184521038156

>  <r_j_Total_Enthalpy_(au)_298.15K_1.00E+00atm> (1)
-394.183576852264

>  <r_j_Total_Free_Energy_(au)_298.15K_1.00E+00atm> (1)
-394.235237189219

>  <r_lp_tautomer_probability> (1)
1

>  <r_epik_Ionization_Penalty> (1)
  0.0000

>  <r_epik_Ionization_Penalty_Charging> (1)
  0.0000

>  <r_epik_Ionization_Penalty_Neutral> (1)
  0.0000

>  <r_epik_State_Penalty> (1)
  0.0000

>  <r_epik_Charging_Adjusted_Penalty> (1)
0

>  <i_epik_Tot_Q> (1)
0

>  <i_epik_Tot_abs_Q> (1)
0

>  <s_lp_Force_Field> (1)
S-OPLS

>  <r_lp_Energy> (1)
5.19311

>  <b_lp_Chiralities_Consistent> (1)
1

$$$$
