22207_Hexadecanoic acid, 14-methyl-
                    3D
 Schrodinger Suite 2021-3.
 52 51  0  0  1  0            999 V2000
   -6.3452    2.2288   -1.5203 C   0  0  0  0  0  0
   -4.8271    2.4228   -1.4306 C   0  0  0  0  0  0
   -4.3201    2.9207   -0.0617 C   0  0  0  0  0  0
   -4.8644    4.3193    0.2685 C   0  0  0  0  0  0
   -2.7787    2.9182    0.0098 C   0  0  0  0  0  0
   -2.1307    1.5281    0.0180 C   0  0  0  0  0  0
   -0.5997    1.5677    0.0992 C   0  0  0  0  0  0
    0.0322    0.1718    0.1403 C   0  0  0  0  0  0
    1.5651    0.1782    0.1519 C   0  0  0  0  0  0
    2.1681   -1.2297    0.2213 C   0  0  0  0  0  0
    3.6994   -1.2600    0.1591 C   0  0  0  0  0  0
    4.2787   -2.6762    0.2588 C   0  0  0  0  0  0
    5.8036   -2.7384    0.1188 C   0  0  0  0  0  0
    6.3702   -4.1585    0.2494 C   0  0  0  0  0  0
    7.8914   -4.2534    0.0605 C   0  0  0  0  0  0
    8.4016   -3.8844   -1.3340 C   0  0  0  0  0  0
    9.8868   -4.3535   -1.6166 C   0  0  0  0  0  0
   10.4849   -3.6919   -2.4986 O   0  0  0  0  0  0
   10.2758   -5.3503   -0.9540 O   0  5  0  0  0  0
   -6.6301    1.8030   -2.4883 H   0  0  0  0  0  0
   -6.8887    3.1719   -1.4052 H   0  0  0  0  0  0
   -6.6990    1.5447   -0.7399 H   0  0  0  0  0  0
   -4.3426    1.4693   -1.6691 H   0  0  0  0  0  0
   -4.4989    3.1316   -2.2048 H   0  0  0  0  0  0
   -4.6909    2.2233    0.7065 H   0  0  0  0  0  0
   -4.5314    5.0498   -0.4797 H   0  0  0  0  0  0
   -4.5059    4.6594    1.2461 H   0  0  0  0  0  0
   -5.9582    4.3420    0.2926 H   0  0  0  0  0  0
   -2.3817    3.5052   -0.8321 H   0  0  0  0  0  0
   -2.4661    3.4503    0.9192 H   0  0  0  0  0  0
   -2.5250    0.9538    0.8689 H   0  0  0  0  0  0
   -2.4175    0.9693   -0.8820 H   0  0  0  0  0  0
   -0.2052    2.1225   -0.7642 H   0  0  0  0  0  0
   -0.2922    2.1352    0.9895 H   0  0  0  0  0  0
   -0.3360   -0.3647    1.0270 H   0  0  0  0  0  0
   -0.3167   -0.4074   -0.7270 H   0  0  0  0  0  0
    1.9325    0.6890   -0.7498 H   0  0  0  0  0  0
    1.9244    0.7730    1.0041 H   0  0  0  0  0  0
    1.8311   -1.7206    1.1462 H   0  0  0  0  0  0
    1.7643   -1.8350   -0.6035 H   0  0  0  0  0  0
    4.0332   -0.7955   -0.7798 H   0  0  0  0  0  0
    4.1123   -0.6381    0.9667 H   0  0  0  0  0  0
    3.9783   -3.1210    1.2197 H   0  0  0  0  0  0
    3.8216   -3.3066   -0.5184 H   0  0  0  0  0  0
    6.0959   -2.3203   -0.8528 H   0  0  0  0  0  0
    6.2690   -2.0923    0.8785 H   0  0  0  0  0  0
    6.0839   -4.5592    1.2357 H   0  0  0  0  0  0
    5.8767   -4.8033   -0.4947 H   0  0  0  0  0  0
    8.3880   -3.6228    0.8143 H   0  0  0  0  0  0
    8.2396   -5.2737    0.2545 H   0  0  0  0  0  0
    7.7625   -4.3706   -2.0906 H   0  0  0  0  0  0
    8.3402   -2.8070   -1.5303 H   0  0  0  0  0  0
  1  2  1  0  0  0
  1 20  1  0  0  0
  1 21  1  0  0  0
  1 22  1  0  0  0
  2  3  1  0  0  0
  2 23  1  0  0  0
  2 24  1  0  0  0
  3  4  1  0  0  0
  3  5  1  0  0  0
  3 25  1  0  0  0
  4 26  1  0  0  0
  4 27  1  0  0  0
  4 28  1  0  0  0
  5  6  1  0  0  0
  5 29  1  0  0  0
  5 30  1  0  0  0
  6  7  1  0  0  0
  6 31  1  0  0  0
  6 32  1  0  0  0
  7  8  1  0  0  0
  7 33  1  0  0  0
  7 34  1  0  0  0
  8  9  1  0  0  0
  8 35  1  0  0  0
  8 36  1  0  0  0
  9 10  1  0  0  0
  9 37  1  0  0  0
  9 38  1  0  0  0
 10 11  1  0  0  0
 10 39  1  0  0  0
 10 40  1  0  0  0
 11 12  1  0  0  0
 11 41  1  0  0  0
 11 42  1  0  0  0
 12 13  1  0  0  0
 12 43  1  0  0  0
 12 44  1  0  0  0
 13 14  1  0  0  0
 13 45  1  0  0  0
 13 46  1  0  0  0
 14 15  1  0  0  0
 14 47  1  0  0  0
 14 48  1  0  0  0
 15 16  1  0  0  0
 15 49  1  0  0  0
 15 50  1  0  0  0
 16 17  1  0  0  0
 16 51  1  0  0  0
 16 52  1  0  0  0
 17 18  2  0  0  0
 17 19  1  0  0  0
M  END
>  <s_lp_Force_Field> (1)
S-OPLS

>  <r_lp_Energy> (1)
12.597835

>  <b_lp_Chiralities_Consistent> (1)
1

>  <r_epik_Ionization_Penalty> (1)
  0.0049

>  <r_epik_Ionization_Penalty_Charging> (1)
  0.0049

>  <r_epik_Ionization_Penalty_Neutral> (1)
  0.0000

>  <r_epik_State_Penalty> (1)
  0.0035

>  <r_epik_Charging_Adjusted_Penalty> (1)
0.00839777765143097

>  <i_epik_Tot_Q> (1)
-1

>  <i_epik_Tot_abs_Q> (1)
1

>  <i_m_Spin_multiplicity> (1)
1

>  <s_j_Task> (1)
Single Point

>  <s_j_QM_Method> (1)
DFT(b3lyp-d3)

>  <s_j_QM_Basis> (1)
6-31g**

>  <i_j_Number_of_canonical_orbitals> (1)
450

>  <i_j_Geometry_convergence_category> (1)
3

>  <r_j_Gas_Phase_Energy> (1)
-818.298702642072

>  <r_j_Final_Energy> (1)
-818.298702642072

>  <r_j_HOMO> (1)
-0.00596131359754548

>  <r_j_LUMO> (1)
0.124804756488631

>  <r_j_Polarizability> (1)
195.381053226726

>  <r_j_QM_Dipole_(debye)> (1)
39.6065058166178

>  <r_j_QM_Dipole_X_(debye)> (1)
-35.5232998373714

>  <r_j_QM_Dipole_Y_(debye)> (1)
16.6855008493476

>  <r_j_QM_Dipole_Z_(debye)> (1)
5.3258363730406

>  <r_j_Lowest_Frequency_(cm-1)> (1)
3.85061410647972

>  <r_j_Highest_Frequency_(cm-1)> (1)
3116.98461479312

>  <r_j_2nd_Lowest_Frequency_(cm-1)> (1)
20.5116924584264

>  <i_j_Num_Negative_Frequencies> (1)
0

>  <r_j_Zero_Point_Energy_(kcal/mol)> (1)
300.017753985494

>  <r_j_Entropy_(cal/mol/K)_298.15K_1.00E+00atm> (1)
158.729511213203

>  <r_j_Enthalpy_(kcal/mol)_298.15K_1.00E+00atm> (1)
14.993536958228

>  <r_j_Free_Energy_(kcal/mol)_298.15K_1.00E+00atm> (1)
-32.3316668099884

>  <r_j_Internal_Energy_(kcal/mol)_298.15K_1.00E+00atm> (1)
14.4010513694007

>  <r_j_Heat_Capacity_(cal/mol/K)_298.15K_1.00E+00atm> (1)
85.2853261054813

>  <r_j_ln(Q)_298.15K_1.00E+00atm> (1)
54.5695413013901

>  <r_j_Total_Internal_Energy_(au)_298.15K_1.00E+00atm> (1)
-817.797644378593

>  <r_j_Total_Enthalpy_(au)_298.15K_1.00E+00atm> (1)
-817.7967001927

>  <r_j_Total_Free_Energy_(au)_298.15K_1.00E+00atm> (1)
-817.87211770595

$$$$
