22311_D-limonene
                    3D
 Schrodinger Suite 2021-3.
 26 26  0  0  1  0            999 V2000
   -4.2057   -1.1749    0.1204 C   0  0  0  0  0  0
   -2.7181   -0.9437    0.0873 C   0  0  0  0  0  0
   -2.0044   -0.6925    1.1917 C   0  0  0  0  0  0
   -0.5225   -0.4160    1.2096 C   0  0  0  0  0  0
    0.0416   -0.1025   -0.1979 C   0  0  0  0  0  0
   -0.5343   -1.1145   -1.1981 C   0  0  0  0  0  0
   -2.0621   -1.0002   -1.2757 C   0  0  0  0  0  0
    1.5580   -0.0071   -0.1712 C   0  0  0  0  0  0
    2.3633   -0.9181   -0.7278 C   0  0  0  0  0  0
    2.1215    1.1941    0.5523 C   0  0  0  0  0  0
   -4.7294   -0.4532   -0.5209 H   0  0  0  0  0  0
   -4.6125   -1.0857    1.1320 H   0  0  0  0  0  0
   -4.4592   -2.1719   -0.2637 H   0  0  0  0  0  0
   -2.5103   -0.6788    2.1568 H   0  0  0  0  0  0
   -0.3188    0.4174    1.8937 H   0  0  0  0  0  0
    0.0176   -1.2802    1.6260 H   0  0  0  0  0  0
   -0.3439    0.8908   -0.4792 H   0  0  0  0  0  0
   -0.0920   -0.9666   -2.1891 H   0  0  0  0  0  0
   -0.2679   -2.1293   -0.8762 H   0  0  0  0  0  0
   -2.4716   -1.8478   -1.8425 H   0  0  0  0  0  0
   -2.3469   -0.1036   -1.8480 H   0  0  0  0  0  0
    1.9873   -1.7901   -1.2517 H   0  0  0  0  0  0
    3.4441   -0.8211   -0.6730 H   0  0  0  0  0  0
    1.7309    2.1267    0.1250 H   0  0  0  0  0  0
    3.2131    1.2247    0.4980 H   0  0  0  0  0  0
    1.8389    1.1948    1.6120 H   0  0  0  0  0  0
  1  2  1  0  0  0
  1 11  1  0  0  0
  1 12  1  0  0  0
  1 13  1  0  0  0
  2  7  1  0  0  0
  2  3  2  0  0  0
  3  4  1  0  0  0
  3 14  1  0  0  0
  4  5  1  0  0  0
  4 15  1  0  0  0
  4 16  1  0  0  0
  5  6  1  0  0  0
  5  8  1  0  0  0
  5 17  1  0  0  0
  6  7  1  0  0  0
  6 18  1  0  0  0
  6 19  1  0  0  0
  7 20  1  0  0  0
  7 21  1  0  0  0
  8  9  2  0  0  0
  8 10  1  0  0  0
  9 22  1  0  0  0
  9 23  1  0  0  0
 10 24  1  0  0  0
 10 25  1  0  0  0
 10 26  1  0  0  0
M  END
>  <i_m_Spin_multiplicity> (1)
1

>  <s_j_Task> (1)
Single Point

>  <s_j_QM_Method> (1)
DFT(b3lyp-d3)

>  <s_j_QM_Basis> (1)
cc-pvtz(-f)

>  <i_j_Number_of_canonical_orbitals> (1)
369

>  <i_j_Geometry_convergence_category> (1)
0

>  <r_j_Gas_Phase_Energy> (1)
-390.82738340609

>  <r_j_Final_Energy> (1)
-390.82738340609

>  <r_j_HOMO> (1)
-0.241146341348285

>  <r_j_LUMO> (1)
0.012446189878177

>  <r_j_Polarizability> (1)
115.792459781298

>  <r_j_QM_Dipole_(debye)> (1)
0.47464786830889

>  <r_j_QM_Dipole_X_(debye)> (1)
-0.37454333367753

>  <r_j_QM_Dipole_Y_(debye)> (1)
0.291504322628882

>  <r_j_QM_Dipole_Z_(debye)> (1)
-0.0057549957926271

>  <r_j_Lowest_Frequency_(cm-1)> (1)
89.905848010311

>  <r_j_Highest_Frequency_(cm-1)> (1)
3177.71790856787

>  <r_j_2nd_Lowest_Frequency_(cm-1)> (1)
98.0555436043698

>  <i_j_Num_Negative_Frequencies> (1)
0

>  <r_j_Zero_Point_Energy_(kcal/mol)> (1)
147.037778272034

>  <r_j_Entropy_(cal/mol/K)_298.15K_1.00E+00atm> (1)
96.0959600259938

>  <r_j_Enthalpy_(kcal/mol)_298.15K_1.00E+00atm> (1)
6.94553701851286

>  <r_j_Free_Energy_(kcal/mol)_298.15K_1.00E+00atm> (1)
-21.7054734632372

>  <r_j_Internal_Energy_(kcal/mol)_298.15K_1.00E+00atm> (1)
6.35305142968558

>  <r_j_Heat_Capacity_(cal/mol/K)_298.15K_1.00E+00atm> (1)
40.5540508858398

>  <r_j_ln(Q)_298.15K_1.00E+00atm> (1)
36.6346015372281

>  <r_j_Total_Internal_Energy_(au)_298.15K_1.00E+00atm> (1)
-390.582939557773

>  <r_j_Total_Enthalpy_(au)_298.15K_1.00E+00atm> (1)
-390.581995371881

>  <r_j_Total_Free_Energy_(au)_298.15K_1.00E+00atm> (1)
-390.62765366367

>  <r_lp_tautomer_probability> (1)
1

>  <r_epik_Ionization_Penalty> (1)
  0.0000

>  <r_epik_Ionization_Penalty_Charging> (1)
  0.0000

>  <r_epik_Ionization_Penalty_Neutral> (1)
  0.0000

>  <r_epik_State_Penalty> (1)
  0.0000

>  <r_epik_Charging_Adjusted_Penalty> (1)
0

>  <i_epik_Tot_Q> (1)
0

>  <i_epik_Tot_abs_Q> (1)
0

>  <s_lp_Force_Field> (1)
S-OPLS

>  <r_lp_Energy> (1)
2.90463

>  <b_lp_Chiralities_Consistent> (1)
1

$$$$
