22328_N-Pentadecylcyclohexane
                    3D
 Schrodinger Suite 2021-3.
 63 63  0  0  1  0            999 V2000
   -7.0903    5.8527   -0.0700 C   0  0  0  0  0  0
   -6.4894    4.4459   -0.1454 C   0  0  0  0  0  0
   -4.9586    4.4391   -0.0558 C   0  0  0  0  0  0
   -4.3529    3.0332   -0.1310 C   0  0  0  0  0  0
   -2.8227    3.0157   -0.0396 C   0  0  0  0  0  0
   -2.2301    1.6040   -0.1151 C   0  0  0  0  0  0
   -0.7005    1.5707   -0.0192 C   0  0  0  0  0  0
   -0.1227    0.1526   -0.0925 C   0  0  0  0  0  0
    1.4060    0.1034    0.0111 C   0  0  0  0  0  0
    1.9704   -1.3204   -0.0566 C   0  0  0  0  0  0
    3.4977   -1.3827    0.0588 C   0  0  0  0  0  0
    4.0522   -2.8108    0.0006 C   0  0  0  0  0  0
    5.5779   -2.8814    0.1315 C   0  0  0  0  0  0
    6.1174   -4.3168    0.1002 C   0  0  0  0  0  0
    7.6508   -4.4233    0.1397 C   0  0  0  0  0  0
    8.3463   -3.7676    1.3472 C   0  0  0  0  0  0
    7.8395   -4.3083    2.6977 C   0  0  0  0  0  0
    8.5740   -3.6711    3.8878 C   0  0  0  0  0  0
   10.0952   -3.8456    3.7723 C   0  0  0  0  0  0
   10.6106   -3.2947    2.4347 C   0  0  0  0  0  0
    9.8749   -3.9375    1.2497 C   0  0  0  0  0  0
   -8.1831    5.8283   -0.1358 H   0  0  0  0  0  0
   -6.7208    6.4834   -0.8869 H   0  0  0  0  0  0
   -6.8236    6.3452    0.8723 H   0  0  0  0  0  0
   -6.9006    3.8262    0.6632 H   0  0  0  0  0  0
   -6.7979    3.9637   -1.0831 H   0  0  0  0  0  0
   -4.5447    5.0587   -0.8646 H   0  0  0  0  0  0
   -4.6478    4.9207    0.8826 H   0  0  0  0  0  0
   -4.7708    2.4150    0.6766 H   0  0  0  0  0  0
   -4.6652    2.5537   -1.0700 H   0  0  0  0  0  0
   -2.4019    3.6316   -0.8474 H   0  0  0  0  0  0
   -2.5085    3.4931    0.8997 H   0  0  0  0  0  0
   -2.6565    0.9890    0.6905 H   0  0  0  0  0  0
   -2.5448    1.1288   -1.0554 H   0  0  0  0  0  0
   -0.2708    2.1820   -0.8258 H   0  0  0  0  0  0
   -0.3842    2.0448    0.9210 H   0  0  0  0  0  0
   -0.5595   -0.4579    0.7110 H   0  0  0  0  0  0
   -0.4379   -0.3191   -1.0344 H   0  0  0  0  0  0
    1.8461    0.7091   -0.7940 H   0  0  0  0  0  0
    1.7221    0.5757    0.9524 H   0  0  0  0  0  0
    1.5221   -1.9257    0.7445 H   0  0  0  0  0  0
    1.6578   -1.7903   -1.0002 H   0  0  0  0  0  0
    3.9493   -0.7831   -0.7446 H   0  0  0  0  0  0
    3.8102   -0.9099    1.0010 H   0  0  0  0  0  0
    3.5931   -3.4099    0.8003 H   0  0  0  0  0  0
    3.7448   -3.2827   -0.9437 H   0  0  0  0  0  0
    6.0433   -2.2987   -0.6768 H   0  0  0  0  0  0
    5.8773   -2.3921    1.0680 H   0  0  0  0  0  0
    5.6815   -4.8824    0.9341 H   0  0  0  0  0  0
    5.7590   -4.8121   -0.8125 H   0  0  0  0  0  0
    7.9311   -5.4860    0.1111 H   0  0  0  0  0  0
    8.0598   -3.9775   -0.7782 H   0  0  0  0  0  0
    8.1374   -2.6870    1.3237 H   0  0  0  0  0  0
    6.7613   -4.1382    2.7972 H   0  0  0  0  0  0
    7.9863   -5.3989    2.7187 H   0  0  0  0  0  0
    8.3373   -2.5978    3.9207 H   0  0  0  0  0  0
    8.2100   -4.0991    4.8296 H   0  0  0  0  0  0
   10.6019   -3.3534    4.6111 H   0  0  0  0  0  0
   10.3411   -4.9152    3.8400 H   0  0  0  0  0  0
   10.4550   -2.2066    2.4091 H   0  0  0  0  0  0
   11.6913   -3.4579    2.3440 H   0  0  0  0  0  0
   10.1090   -5.0124    1.2207 H   0  0  0  0  0  0
   10.2364   -3.5159    0.3029 H   0  0  0  0  0  0
  1  2  1  0  0  0
  1 22  1  0  0  0
  1 23  1  0  0  0
  1 24  1  0  0  0
  2  3  1  0  0  0
  2 25  1  0  0  0
  2 26  1  0  0  0
  3  4  1  0  0  0
  3 27  1  0  0  0
  3 28  1  0  0  0
  4  5  1  0  0  0
  4 29  1  0  0  0
  4 30  1  0  0  0
  5  6  1  0  0  0
  5 31  1  0  0  0
  5 32  1  0  0  0
  6  7  1  0  0  0
  6 33  1  0  0  0
  6 34  1  0  0  0
  7  8  1  0  0  0
  7 35  1  0  0  0
  7 36  1  0  0  0
  8  9  1  0  0  0
  8 37  1  0  0  0
  8 38  1  0  0  0
  9 10  1  0  0  0
  9 39  1  0  0  0
  9 40  1  0  0  0
 10 11  1  0  0  0
 10 41  1  0  0  0
 10 42  1  0  0  0
 11 12  1  0  0  0
 11 43  1  0  0  0
 11 44  1  0  0  0
 12 13  1  0  0  0
 12 45  1  0  0  0
 12 46  1  0  0  0
 13 14  1  0  0  0
 13 47  1  0  0  0
 13 48  1  0  0  0
 14 15  1  0  0  0
 14 49  1  0  0  0
 14 50  1  0  0  0
 15 16  1  0  0  0
 15 51  1  0  0  0
 15 52  1  0  0  0
 16 21  1  0  0  0
 16 17  1  0  0  0
 16 53  1  0  0  0
 17 18  1  0  0  0
 17 54  1  0  0  0
 17 55  1  0  0  0
 18 19  1  0  0  0
 18 56  1  0  0  0
 18 57  1  0  0  0
 19 20  1  0  0  0
 19 58  1  0  0  0
 19 59  1  0  0  0
 20 21  1  0  0  0
 20 60  1  0  0  0
 20 61  1  0  0  0
 21 62  1  0  0  0
 21 63  1  0  0  0
M  END
>  <i_m_Spin_multiplicity> (1)
1

>  <s_j_Task> (1)
Single Point

>  <s_j_QM_Method> (1)
DFT(b3lyp-d3)

>  <s_j_QM_Basis> (1)
cc-pvtz(-f)

>  <i_j_Number_of_canonical_orbitals> (1)
853

>  <i_j_Geometry_convergence_category> (1)
0

>  <r_j_Gas_Phase_Energy> (1)
-825.914977048668

>  <r_j_Final_Energy> (1)
-825.914977048668

>  <r_j_HOMO> (1)
-0.281845637068603

>  <r_j_LUMO> (1)
-0.0025106064105607

>  <r_j_Polarizability> (1)
256.453521026575

>  <r_j_QM_Dipole_(debye)> (1)
0.0135716791837755

>  <r_j_QM_Dipole_X_(debye)> (1)
-0.00716224269629579

>  <r_j_QM_Dipole_Y_(debye)> (1)
-0.00558762096108616

>  <r_j_QM_Dipole_Z_(debye)> (1)
0.0100832161249233

>  <r_j_Lowest_Frequency_(cm-1)> (1)
27.291150399022

>  <r_j_Highest_Frequency_(cm-1)> (1)
3045.51532387542

>  <r_j_2nd_Lowest_Frequency_(cm-1)> (1)
37.1349554384402

>  <i_j_Num_Negative_Frequencies> (1)
0

>  <r_j_Zero_Point_Energy_(kcal/mol)> (1)
374.183914381528

>  <r_j_Entropy_(cal/mol/K)_298.15K_1.00E+00atm> (1)
160.351624009249

>  <r_j_Enthalpy_(kcal/mol)_298.15K_1.00E+00atm> (1)
15.6141393883786

>  <r_j_Free_Energy_(kcal/mol)_298.15K_1.00E+00atm> (1)
-32.194697309979

>  <r_j_Internal_Energy_(kcal/mol)_298.15K_1.00E+00atm> (1)
15.0216537995514

>  <r_j_Heat_Capacity_(cal/mol/K)_298.15K_1.00E+00atm> (1)
94.3679124706009

>  <r_j_ln(Q)_298.15K_1.00E+00atm> (1)
54.3383635266184

>  <r_j_Total_Internal_Energy_(au)_298.15K_1.00E+00atm> (1)
-825.294738491661

>  <r_j_Total_Enthalpy_(au)_298.15K_1.00E+00atm> (1)
-825.293794305769

>  <r_j_Total_Free_Energy_(au)_298.15K_1.00E+00atm> (1)
-825.369982537157

>  <r_lp_tautomer_probability> (1)
1

>  <r_epik_Ionization_Penalty> (1)
  0.0000

>  <r_epik_Ionization_Penalty_Charging> (1)
  0.0000

>  <r_epik_Ionization_Penalty_Neutral> (1)
  0.0000

>  <r_epik_State_Penalty> (1)
  0.0000

>  <r_epik_Charging_Adjusted_Penalty> (1)
0

>  <i_epik_Tot_Q> (1)
0

>  <i_epik_Tot_abs_Q> (1)
0

>  <s_lp_Force_Field> (1)
S-OPLS

>  <r_lp_Energy> (1)
15.267581

>  <b_lp_Chiralities_Consistent> (1)
1

$$$$
