22327_tridecylcyclohexane
                    3D
 Schrodinger Suite 2021-3.
 57 57  0  0  1  0            999 V2000
   -6.2828    4.8949   -0.2494 C   0  0  0  0  0  0
   -4.7571    4.7625   -0.2712 C   0  0  0  0  0  0
   -4.2775    3.3090   -0.1795 C   0  0  0  0  0  0
   -2.7512    3.1710   -0.2002 C   0  0  0  0  0  0
   -2.2633    1.7209   -0.1055 C   0  0  0  0  0  0
   -0.7357    1.5949   -0.1251 C   0  0  0  0  0  0
   -0.2362    0.1492   -0.0237 C   0  0  0  0  0  0
    1.2925    0.0352   -0.0406 C   0  0  0  0  0  0
    1.8016   -1.4065    0.0705 C   0  0  0  0  0  0
    3.3329   -1.5036    0.0625 C   0  0  0  0  0  0
    3.8829   -2.9376    0.0991 C   0  0  0  0  0  0
    3.5540   -3.7118    1.3831 C   0  0  0  0  0  0
    4.2288   -5.0888    1.4314 C   0  0  0  0  0  0
    3.8388   -5.9679    2.6314 C   0  0  0  0  0  0
    4.4424   -7.3797    2.4956 C   0  0  0  0  0  0
    4.0753   -8.2907    3.6763 C   0  0  0  0  0  0
    4.4871   -7.6597    5.0144 C   0  0  0  0  0  0
    3.8794   -6.2581    5.1692 C   0  0  0  0  0  0
    4.2442   -5.3501    3.9840 C   0  0  0  0  0  0
   -6.5977    5.9416   -0.3159 H   0  0  0  0  0  0
   -6.7015    4.4785    0.6741 H   0  0  0  0  0  0
   -6.7372    4.3558   -1.0888 H   0  0  0  0  0  0
   -4.3614    5.2157   -1.1904 H   0  0  0  0  0  0
   -4.3260    5.3376    0.5597 H   0  0  0  0  0  0
   -4.6726    2.8539    0.7403 H   0  0  0  0  0  0
   -4.7076    2.7316   -1.0107 H   0  0  0  0  0  0
   -2.3583    3.6264   -1.1206 H   0  0  0  0  0  0
   -2.3236    3.7518    0.6297 H   0  0  0  0  0  0
   -2.6546    1.2645    0.8151 H   0  0  0  0  0  0
   -2.6878    1.1384   -0.9358 H   0  0  0  0  0  0
   -0.3461    2.0496   -1.0472 H   0  0  0  0  0  0
   -0.3133    2.1827    0.7026 H   0  0  0  0  0  0
   -0.6249   -0.3061    0.8985 H   0  0  0  0  0  0
   -0.6550   -0.4404   -0.8518 H   0  0  0  0  0  0
    1.6802    0.4881   -0.9644 H   0  0  0  0  0  0
    1.7091    0.6305    0.7846 H   0  0  0  0  0  0
    1.4026   -1.8557    0.9893 H   0  0  0  0  0  0
    1.3963   -2.0026   -0.7602 H   0  0  0  0  0  0
    3.7135   -0.9997   -0.8364 H   0  0  0  0  0  0
    3.7343   -0.9405    0.9176 H   0  0  0  0  0  0
    3.5023   -3.4959   -0.7683 H   0  0  0  0  0  0
    4.9744   -2.9012   -0.0203 H   0  0  0  0  0  0
    3.8627   -3.1095    2.2476 H   0  0  0  0  0  0
    2.4677   -3.8430    1.4740 H   0  0  0  0  0  0
    3.9846   -5.6320    0.5071 H   0  0  0  0  0  0
    5.3212   -4.9584    1.4237 H   0  0  0  0  0  0
    2.7413   -6.0740    2.6302 H   0  0  0  0  0  0
    4.1173   -7.8333    1.5506 H   0  0  0  0  0  0
    5.5376   -7.2896    2.4362 H   0  0  0  0  0  0
    2.9890   -8.4598    3.6770 H   0  0  0  0  0  0
    4.5442   -9.2746    3.5558 H   0  0  0  0  0  0
    4.1864   -8.3024    5.8504 H   0  0  0  0  0  0
    5.5833   -7.5836    5.0545 H   0  0  0  0  0  0
    2.7850   -6.3460    5.2299 H   0  0  0  0  0  0
    4.2076   -5.8002    6.1101 H   0  0  0  0  0  0
    5.3313   -5.1775    3.9789 H   0  0  0  0  0  0
    3.7738   -4.3689    4.1123 H   0  0  0  0  0  0
  1  2  1  0  0  0
  1 20  1  0  0  0
  1 21  1  0  0  0
  1 22  1  0  0  0
  2  3  1  0  0  0
  2 23  1  0  0  0
  2 24  1  0  0  0
  3  4  1  0  0  0
  3 25  1  0  0  0
  3 26  1  0  0  0
  4  5  1  0  0  0
  4 27  1  0  0  0
  4 28  1  0  0  0
  5  6  1  0  0  0
  5 29  1  0  0  0
  5 30  1  0  0  0
  6  7  1  0  0  0
  6 31  1  0  0  0
  6 32  1  0  0  0
  7  8  1  0  0  0
  7 33  1  0  0  0
  7 34  1  0  0  0
  8  9  1  0  0  0
  8 35  1  0  0  0
  8 36  1  0  0  0
  9 10  1  0  0  0
  9 37  1  0  0  0
  9 38  1  0  0  0
 10 11  1  0  0  0
 10 39  1  0  0  0
 10 40  1  0  0  0
 11 12  1  0  0  0
 11 41  1  0  0  0
 11 42  1  0  0  0
 12 13  1  0  0  0
 12 43  1  0  0  0
 12 44  1  0  0  0
 13 14  1  0  0  0
 13 45  1  0  0  0
 13 46  1  0  0  0
 14 19  1  0  0  0
 14 15  1  0  0  0
 14 47  1  0  0  0
 15 16  1  0  0  0
 15 48  1  0  0  0
 15 49  1  0  0  0
 16 17  1  0  0  0
 16 50  1  0  0  0
 16 51  1  0  0  0
 17 18  1  0  0  0
 17 52  1  0  0  0
 17 53  1  0  0  0
 18 19  1  0  0  0
 18 54  1  0  0  0
 18 55  1  0  0  0
 19 56  1  0  0  0
 19 57  1  0  0  0
M  END
>  <i_m_Spin_multiplicity> (1)
1

>  <s_j_Task> (1)
Single Point

>  <s_j_QM_Method> (1)
DFT(b3lyp-d3)

>  <s_j_QM_Basis> (1)
cc-pvtz(-f)

>  <i_j_Number_of_canonical_orbitals> (1)
773

>  <i_j_Geometry_convergence_category> (1)
3

>  <r_j_Gas_Phase_Energy> (1)
-747.255752850609

>  <r_j_Final_Energy> (1)
-747.255752850609

>  <r_j_HOMO> (1)
-0.286210336462112

>  <r_j_LUMO> (1)
-0.025720879391778

>  <r_j_Polarizability> (1)
231.47565821813

>  <r_j_QM_Dipole_(debye)> (1)
0.0286483068803622

>  <r_j_QM_Dipole_X_(debye)> (1)
0.00636335413177387

>  <r_j_QM_Dipole_Y_(debye)> (1)
0.0085417574966477

>  <r_j_QM_Dipole_Z_(debye)> (1)
0.0265945782101072

>  <r_j_Lowest_Frequency_(cm-1)> (1)
28.9395025567687

>  <r_j_Highest_Frequency_(cm-1)> (1)
3045.39443483344

>  <r_j_2nd_Lowest_Frequency_(cm-1)> (1)
49.6299339578115

>  <i_j_Num_Negative_Frequencies> (1)
0

>  <r_j_Zero_Point_Energy_(kcal/mol)> (1)
338.408431416706

>  <r_j_Entropy_(cal/mol/K)_298.15K_1.00E+00atm> (1)
150.08786038076

>  <r_j_Enthalpy_(kcal/mol)_298.15K_1.00E+00atm> (1)
14.1094704641192

>  <r_j_Free_Energy_(kcal/mol)_298.15K_1.00E+00atm> (1)
-30.6392251084045

>  <r_j_Internal_Energy_(kcal/mol)_298.15K_1.00E+00atm> (1)
13.5169848752919

>  <r_j_Heat_Capacity_(cal/mol/K)_298.15K_1.00E+00atm> (1)
84.9166698234626

>  <r_j_ln(Q)_298.15K_1.00E+00atm> (1)
51.7130301330193

>  <r_j_Total_Internal_Energy_(au)_298.15K_1.00E+00atm> (1)
-746.694923997633

>  <r_j_Total_Enthalpy_(au)_298.15K_1.00E+00atm> (1)
-746.69397981174

>  <r_j_Total_Free_Energy_(au)_298.15K_1.00E+00atm> (1)
-746.765291397799

>  <r_lp_tautomer_probability> (1)
1

>  <r_epik_Ionization_Penalty> (1)
  0.0000

>  <r_epik_Ionization_Penalty_Charging> (1)
  0.0000

>  <r_epik_Ionization_Penalty_Neutral> (1)
  0.0000

>  <r_epik_State_Penalty> (1)
  0.0000

>  <r_epik_Charging_Adjusted_Penalty> (1)
0

>  <i_epik_Tot_Q> (1)
0

>  <i_epik_Tot_abs_Q> (1)
0

>  <s_lp_Force_Field> (1)
S-OPLS

>  <r_lp_Energy> (1)
14.331531

>  <b_lp_Chiralities_Consistent> (1)
1

$$$$
