223_Ammonium
                    3D
 Schrodinger Suite 2021-3.
  5  4  0  0  1  0            999 V2000
    2.5369    0.0000    0.0000 N   0  3  1  0  0  0
    3.4400    0.5213   -0.0000 H   0  0  0  0  0  0
    1.6339   -0.5214   -0.0000 H   0  0  0  0  0  0
    2.0155    0.9031    0.0000 H   0  0  0  0  0  0
    3.0583   -0.9031    0.0000 H   0  0  0  0  0  0
  1  2  1  0  0  0
  1  3  1  0  0  0
  1  4  1  0  0  0
  1  5  1  0  0  0
M  END
>  <i_m_Spin_multiplicity> (1)
1

>  <s_j_Task> (1)
Single Point

>  <s_j_QM_Method> (1)
DFT(b3lyp-d3)

>  <s_j_QM_Basis> (1)
cc-pvtz(-f)

>  <i_j_Number_of_canonical_orbitals> (1)
59

>  <r_j_Gas_Phase_Energy> (1)
-56.7420112850589

>  <r_j_Final_Energy> (1)
-56.7420112850589

>  <r_j_Polarizability> (1)
9.63996776981592

>  <r_j_QM_Dipole_(debye)> (1)
0.000112968044521895

>  <r_j_QM_Dipole_X_(debye)> (1)
8.97223321929184e-05

>  <r_j_QM_Dipole_Y_(debye)> (1)
-6.8636065487174e-05

>  <r_j_QM_Dipole_Z_(debye)> (1)
8.79035496849083e-07

>  <r_j_Zero_Point_Energy_(kcal/mol)> (1)
21.6091137381786

>  <r_j_Entropy_(cal/mol/K)_298.15K_1.00E+00atm> (1)
48.3898011717149

>  <r_j_Enthalpy_(kcal/mol)_298.15K_1.00E+00atm> (1)
2.95880436711977

>  <r_j_Free_Energy_(kcal/mol)_298.15K_1.00E+00atm> (1)
-11.468614852227

>  <r_j_Internal_Energy_(kcal/mol)_298.15K_1.00E+00atm> (1)
2.36631877829249

>  <r_j_Heat_Capacity_(cal/mol/K)_298.15K_1.00E+00atm> (1)
9.4798477592209

>  <r_j_ln(Q)_298.15K_1.00E+00atm> (1)
19.3567827952191

>  <r_j_Total_Internal_Energy_(au)_298.15K_1.00E+00atm> (1)
-56.7038040010853

>  <r_j_Total_Enthalpy_(au)_298.15K_1.00E+00atm> (1)
-56.702859815193

>  <r_j_Total_Free_Energy_(au)_298.15K_1.00E+00atm> (1)
-56.7258513713513

>  <r_j_HOMO> (1)
-0.590787325374258

>  <r_j_LUMO> (1)
-0.337292135509935

>  <r_j_Lowest_Frequency_(cm-1)> (1)
-2763.53180553205

>  <r_j_Highest_Frequency_(cm-1)> (1)
3364.06766813345

>  <r_j_2nd_Lowest_Frequency_(cm-1)> (1)
-832.450869694582

>  <i_j_Num_Negative_Frequencies> (1)
2

>  <i_j_Geometry_convergence_category> (1)
0

$$$$
