225688_Alpha-Amyrin
                    3D
 Schrodinger Suite 2021-3.
 81 85  0  0  1  0            999 V2000
    0.1220    0.0972   -0.2496 C   0  0  0  0  0  0
    1.5779   -0.0498    0.2177 C   0  0  0  0  0  0
    2.5957    0.2996   -0.8737 C   0  0  0  0  0  0
    2.5304    1.7919   -1.2125 C   0  0  0  0  0  0
    2.3259    2.8862   -0.0873 C   0  0  0  0  0  0
    3.6448    3.5596    0.3363 C   0  0  0  0  0  0
    3.4520    4.7744    1.2779 C   0  0  0  0  0  0
    2.3568    4.6215    2.3928 C   0  0  0  0  0  0
    2.0637    3.1240    2.5333 C   0  0  0  0  0  0
    2.1767    2.5223    3.7270 C   0  0  0  0  0  0
    2.9116    3.0794    4.9143 C   0  0  0  0  0  0
    3.7665    4.2968    4.5215 C   0  0  0  0  0  0
    2.8125    5.2998    3.7900 C   0  0  0  0  0  0
    3.5188    6.6558    3.5432 C   0  0  0  0  0  0
    4.2942    7.1862    4.7606 C   0  0  0  0  0  0
    5.3561    6.2175    5.3389 C   0  0  0  0  0  0
    4.6798    4.8355    5.6928 C   0  0  0  0  0  0
    5.7593    3.7629    6.0314 C   0  0  0  0  0  0
    6.9759    3.7409    5.1107 C   0  0  0  0  0  0
    7.6459    5.1055    5.1508 C   0  0  0  0  0  0
    6.7302    6.2183    4.5575 C   0  0  0  0  0  0
    6.6448    6.0203    3.0329 C   0  0  0  0  0  0
    7.4253    7.5770    4.8069 C   0  0  0  0  0  0
    8.8973    4.9883    4.4716 O   0  0  0  0  0  0
    3.9061    5.0423    7.0237 C   0  0  0  0  0  0
    1.5715    5.5956    4.6772 C   0  0  0  0  0  0
    1.6571    2.3251    1.2562 C   0  0  0  0  0  0
    1.9170    0.7865    1.4718 C   0  0  0  0  0  0
    3.3415    0.4009    1.9401 C   0  0  0  0  0  0
    1.0236    5.3015    1.9696 C   0  0  0  0  0  0
    1.4815    3.9416   -0.8629 C   0  0  0  0  0  0
   -0.1098    1.1067   -0.6012 H   0  0  0  0  0  0
   -0.5729   -0.1334    0.5660 H   0  0  0  0  0  0
   -0.0889   -0.5924   -1.0744 H   0  0  0  0  0  0
    1.7160   -1.1047    0.4938 H   0  0  0  0  0  0
    3.5975    0.0010   -0.5537 H   0  0  0  0  0  0
    2.3900   -0.2735   -1.7870 H   0  0  0  0  0  0
    3.4129    2.0836   -1.7959 H   0  0  0  0  0  0
    1.6880    1.8974   -1.9031 H   0  0  0  0  0  0
    4.2825    2.8236    0.8368 H   0  0  0  0  0  0
    4.1993    3.8935   -0.5504 H   0  0  0  0  0  0
    4.4211    4.9404    1.7458 H   0  0  0  0  0  0
    3.2515    5.6770    0.6897 H   0  0  0  0  0  0
    1.8437    1.4979    3.8513 H   0  0  0  0  0  0
    2.2248    3.3221    5.7337 H   0  0  0  0  0  0
    3.5429    2.2715    5.3036 H   0  0  0  0  0  0
    4.4670    3.9372    3.7570 H   0  0  0  0  0  0
    4.2020    6.5859    2.7031 H   0  0  0  0  0  0
    2.7710    7.4038    3.2519 H   0  0  0  0  0  0
    4.7633    8.1374    4.4881 H   0  0  0  0  0  0
    3.5858    7.4369    5.5579 H   0  0  0  0  0  0
    5.6371    6.6335    6.3171 H   0  0  0  0  0  0
    6.1252    3.9591    7.0480 H   0  0  0  0  0  0
    5.2980    2.7724    6.0771 H   0  0  0  0  0  0
    7.6938    2.9857    5.4478 H   0  0  0  0  0  0
    6.7096    3.4787    4.0810 H   0  0  0  0  0  0
    7.8286    5.3574    6.2112 H   0  0  0  0  0  0
    7.6527    5.8972    2.6298 H   0  0  0  0  0  0
    6.1870    6.8823    2.5425 H   0  0  0  0  0  0
    6.0761    5.1316    2.7587 H   0  0  0  0  0  0
    8.3845    7.6273    4.2785 H   0  0  0  0  0  0
    7.6143    7.7430    5.8742 H   0  0  0  0  0  0
    6.8281    8.4152    4.4387 H   0  0  0  0  0  0
    9.3971    5.8009    4.6190 H   0  0  0  0  0  0
    4.6115    5.3104    7.8175 H   0  0  0  0  0  0
    3.3980    4.1279    7.3419 H   0  0  0  0  0  0
    3.1626    5.8376    6.9825 H   0  0  0  0  0  0
    1.8655    5.8517    5.6916 H   0  0  0  0  0  0
    0.8898    4.7459    4.7413 H   0  0  0  0  0  0
    1.0060    6.4467    4.2928 H   0  0  0  0  0  0
    0.5714    2.4266    1.1288 H   0  0  0  0  0  0
    1.2175    0.4656    2.2551 H   0  0  0  0  0  0
    4.1151    0.8311    1.3027 H   0  0  0  0  0  0
    3.4580   -0.6883    1.9028 H   0  0  0  0  0  0
    3.5610    0.7218    2.9558 H   0  0  0  0  0  0
    1.1720    6.3704    1.7776 H   0  0  0  0  0  0
    0.2638    5.1939    2.7416 H   0  0  0  0  0  0
    0.5957    4.8621    1.0781 H   0  0  0  0  0  0
    1.5143    4.9473   -0.4560 H   0  0  0  0  0  0
    0.4314    3.6349   -0.9384 H   0  0  0  0  0  0
    1.8708    4.0209   -1.8838 H   0  0  0  0  0  0
  1  2  1  0  0  0
  1 32  1  0  0  0
  1 33  1  0  0  0
  1 34  1  0  0  0
  2 28  1  0  0  0
  2  3  1  0  0  0
  2 35  1  0  0  0
  3  4  1  0  0  0
  3 36  1  0  0  0
  3 37  1  0  0  0
  4  5  1  0  0  0
  4 38  1  0  0  0
  4 39  1  0  0  0
  5 27  1  0  0  0
  5  6  1  0  0  0
  5 31  1  0  0  0
  6  7  1  0  0  0
  6 40  1  0  0  0
  6 41  1  0  0  0
  7  8  1  0  0  0
  7 42  1  0  0  0
  7 43  1  0  0  0
  8 13  1  0  0  0
  8  9  1  0  0  0
  8 30  1  0  0  0
  9 10  2  0  0  0
  9 27  1  0  0  0
 10 11  1  0  0  0
 10 44  1  0  0  0
 11 12  1  0  0  0
 11 45  1  0  0  0
 11 46  1  0  0  0
 12 17  1  0  0  0
 12 13  1  0  0  0
 12 47  1  0  0  0
 13 14  1  0  0  0
 13 26  1  0  0  0
 14 15  1  0  0  0
 14 48  1  0  0  0
 14 49  1  0  0  0
 15 16  1  0  0  0
 15 50  1  0  0  0
 15 51  1  0  0  0
 16 21  1  0  0  0
 16 17  1  0  0  0
 16 52  1  0  0  0
 17 18  1  0  0  0
 17 25  1  0  0  0
 18 19  1  0  0  0
 18 53  1  0  0  0
 18 54  1  0  0  0
 19 20  1  0  0  0
 19 55  1  0  0  0
 19 56  1  0  0  0
 20 21  1  0  0  0
 20 24  1  0  0  0
 20 57  1  0  0  0
 21 22  1  0  0  0
 21 23  1  0  0  0
 22 58  1  0  0  0
 22 59  1  0  0  0
 22 60  1  0  0  0
 23 61  1  0  0  0
 23 62  1  0  0  0
 23 63  1  0  0  0
 24 64  1  0  0  0
 25 65  1  0  0  0
 25 66  1  0  0  0
 25 67  1  0  0  0
 26 68  1  0  0  0
 26 69  1  0  0  0
 26 70  1  0  0  0
 27 28  1  0  0  0
 27 71  1  0  0  0
 28 29  1  0  0  0
 28 72  1  0  0  0
 29 73  1  0  0  0
 29 74  1  0  0  0
 29 75  1  0  0  0
 30 76  1  0  0  0
 30 77  1  0  0  0
 30 78  1  0  0  0
 31 79  1  0  0  0
 31 80  1  0  0  0
 31 81  1  0  0  0
M  END
>  <i_m_Spin_multiplicity> (1)
1

>  <s_j_Task> (1)
Single Point

>  <s_j_QM_Method> (1)
DFT(b3lyp-d3)

>  <s_j_QM_Basis> (1)
cc-pvtz(-f)

>  <i_j_Number_of_canonical_orbitals> (1)
1138

>  <i_j_Geometry_convergence_category> (1)
1

>  <r_j_Gas_Phase_Energy> (1)
-1248.98448315005

>  <r_j_Final_Energy> (1)
-1248.98448315005

>  <r_j_HOMO> (1)
-0.220203151006186

>  <r_j_LUMO> (1)
0.0165489629369314

>  <r_j_Polarizability> (1)
331.954058798527

>  <r_j_QM_Dipole_(debye)> (1)
1.18891931442798

>  <r_j_QM_Dipole_X_(debye)> (1)
-0.273320885336789

>  <r_j_QM_Dipole_Y_(debye)> (1)
0.992799026783933

>  <r_j_QM_Dipole_Z_(debye)> (1)
0.59428521963405

>  <r_j_Lowest_Frequency_(cm-1)> (1)
44.1322156864453

>  <r_j_Highest_Frequency_(cm-1)> (1)
3771.68148684242

>  <r_j_2nd_Lowest_Frequency_(cm-1)> (1)
64.6927276834255

>  <i_j_Num_Negative_Frequencies> (1)
0

>  <r_j_Zero_Point_Energy_(kcal/mol)> (1)
470.658618275584

>  <r_j_Entropy_(cal/mol/K)_298.15K_1.00E+00atm> (1)
169.482584785578

>  <r_j_Enthalpy_(kcal/mol)_298.15K_1.00E+00atm> (1)
18.5317442719333

>  <r_j_Free_Energy_(kcal/mol)_298.15K_1.00E+00atm> (1)
-31.9994883818868

>  <r_j_Internal_Energy_(kcal/mol)_298.15K_1.00E+00atm> (1)
17.939258683106

>  <r_j_Heat_Capacity_(cal/mol/K)_298.15K_1.00E+00atm> (1)
128.557542578644

>  <r_j_ln(Q)_298.15K_1.00E+00atm> (1)
54.0088889676193

>  <r_j_Total_Internal_Energy_(au)_298.15K_1.00E+00atm> (1)
-1248.20585286586

>  <r_j_Total_Enthalpy_(au)_298.15K_1.00E+00atm> (1)
-1248.20490867996

>  <r_j_Total_Free_Energy_(au)_298.15K_1.00E+00atm> (1)
-1248.28543532549

>  <r_lp_tautomer_probability> (1)
1

>  <r_epik_Ionization_Penalty> (1)
  0.0000

>  <r_epik_Ionization_Penalty_Charging> (1)
  0.0000

>  <r_epik_Ionization_Penalty_Neutral> (1)
  0.0000

>  <r_epik_State_Penalty> (1)
  0.0000

>  <r_epik_Charging_Adjusted_Penalty> (1)
0

>  <i_epik_Tot_Q> (1)
0

>  <i_epik_Tot_abs_Q> (1)
0

>  <s_lp_Force_Field> (1)
S-OPLS

>  <r_lp_Energy> (1)
123.902

>  <b_lp_Chiralities_Consistent> (1)
1

$$$$
