226327_allylsyringol
                    3D
 Schrodinger Suite 2021-3.
 28 28  0  0  1  0            999 V2000
   -0.8022   -3.6754    0.1949 C   0  0  0  0  0  0
   -0.1048   -2.4404    0.1646 O   0  0  0  0  0  0
   -0.8368   -1.2942    0.0606 C   0  0  0  0  0  0
   -0.0838   -0.1091    0.0357 C   0  0  0  0  0  0
   -0.7326    1.1349   -0.0254 C   0  0  0  0  0  0
   -2.1310    1.1930   -0.0962 C   0  0  0  0  0  0
   -2.8605    0.0056   -0.0918 C   0  0  0  0  0  0
   -2.2353   -1.2371   -0.0104 C   0  0  0  0  0  0
    0.0952    2.2188   -0.0005 O   0  0  0  0  0  0
   -0.4939    3.5080   -0.0589 C   0  0  0  0  0  0
    1.2869   -0.1683    0.0358 O   0  0  0  0  0  0
    1.8722   -0.1382    1.3377 C   0  0  0  0  0  0
    3.3648   -0.2136    1.2315 C   0  0  0  0  0  0
    4.0490   -0.2980    0.0930 C   0  0  0  0  0  0
   -0.0379   -4.4491    0.2829 H   0  0  0  0  0  0
   -1.3770   -3.8401   -0.7261 H   0  0  0  0  0  0
   -1.4817   -3.7392    1.0555 H   0  0  0  0  0  0
   -2.6466    2.1432   -0.1529 H   0  0  0  0  0  0
   -3.9440    0.0501   -0.1494 H   0  0  0  0  0  0
   -2.8306   -2.1413   -0.0014 H   0  0  0  0  0  0
    0.3341    4.2177   -0.0234 H   0  0  0  0  0  0
   -1.1625    3.6899    0.7933 H   0  0  0  0  0  0
   -1.0555    3.6561   -0.9908 H   0  0  0  0  0  0
    1.5780    0.7880    1.8568 H   0  0  0  0  0  0
    1.4945   -0.9832    1.9354 H   0  0  0  0  0  0
    3.8836   -0.1942    2.1896 H   0  0  0  0  0  0
    3.5391   -0.3178   -0.8639 H   0  0  0  0  0  0
    5.1333   -0.3494    0.0895 H   0  0  0  0  0  0
  1  2  1  0  0  0
  1 15  1  0  0  0
  1 16  1  0  0  0
  1 17  1  0  0  0
  2  3  1  0  0  0
  3  8  1  0  0  0
  3  4  2  0  0  0
  4  5  1  0  0  0
  4 11  1  0  0  0
  5  6  2  0  0  0
  5  9  1  0  0  0
  6  7  1  0  0  0
  6 18  1  0  0  0
  7  8  2  0  0  0
  7 19  1  0  0  0
  8 20  1  0  0  0
  9 10  1  0  0  0
 10 21  1  0  0  0
 10 22  1  0  0  0
 10 23  1  0  0  0
 11 12  1  0  0  0
 12 13  1  0  0  0
 12 24  1  0  0  0
 12 25  1  0  0  0
 13 14  2  0  0  0
 13 26  1  0  0  0
 14 27  1  0  0  0
 14 28  1  0  0  0
M  END
> <i_m_Spin_multiplicity>
1

> <s_j_Task>
Single Point

> <s_j_QM_Method>
DFT(b3lyp-d3)

> <s_j_QM_Basis>
cc-pvtz(-f)

> <i_j_Number_of_canonical_orbitals>
442

> <i_j_Geometry_convergence_category>
0

> <r_j_Gas_Phase_Energy>
-653.442841076349

> <r_j_Final_Energy>
-653.442841076349

> <r_j_HOMO>
-0.220691065964006

> <r_j_LUMO>
-0.00595463635304067

> <r_j_Polarizability>
142.278190178889

> <r_j_QM_Dipole_(debye)>
2.31919235722873

> <r_j_QM_Dipole_X_(debye)>
-2.03528771031956

> <r_j_QM_Dipole_Y_(debye)>
0.136513558663268

> <r_j_QM_Dipole_Z_(debye)>
1.10345873250947

> <r_j_Lowest_Frequency_(cm-1)>
40.5308955637768

> <r_j_Highest_Frequency_(cm-1)>
3193.94258312428

> <r_j_2nd_Lowest_Frequency_(cm-1)>
74.6566688447861

> <i_j_Num_Negative_Frequencies>
0

> <r_j_Zero_Point_Energy_(kcal/mol)>
144.504178549217

> <r_j_Entropy_(cal/mol/K)_298.15K_1.00E+00atm>
113.754499968887

> <r_j_Enthalpy_(kcal/mol)_298.15K_1.00E+00atm>
9.10630240085629

> <r_j_Free_Energy_(kcal/mol)_298.15K_1.00E+00atm>
-24.8096017648674

> <r_j_Internal_Energy_(kcal/mol)_298.15K_1.00E+00atm>
8.51381681202902

> <r_j_Heat_Capacity_(cal/mol/K)_298.15K_1.00E+00atm>
51.8356919554293

> <r_j_ln(Q)_298.15K_1.00E+00atm>
41.8737640758045

> <r_j_Total_Internal_Energy_(au)_298.15K_1.00E+00atm>
-653.198991377378

> <r_j_Total_Enthalpy_(au)_298.15K_1.00E+00atm>
-653.198047191486

> <r_j_Total_Free_Energy_(au)_298.15K_1.00E+00atm>
-653.252095625473

> <r_lp_tautomer_probability>
1

> <r_epik_Ionization_Penalty>
  0.0000

> <r_epik_Ionization_Penalty_Charging>
  0.0000

> <r_epik_Ionization_Penalty_Neutral>
  0.0000

> <r_epik_State_Penalty>
  0.0000

> <r_epik_Charging_Adjusted_Penalty>
0

> <i_epik_Tot_Q>
0

> <i_epik_Tot_abs_Q>
0

> <s_lp_Force_Field>
S-OPLS

> <r_lp_Energy>
18.5013

> <b_lp_Chiralities_Consistent>
1

$$$$
