226486_Methoxyeugenol
                    3D
 Schrodinger Suite 2021-3.
 28 28  0  0  1  0            999 V2000
   -0.6469    1.0862    0.3076 C   0  0  0  0  0  0
    0.1105   -0.0873    0.0542 O   0  0  0  0  0  0
    1.4844    0.0098    0.0744 C   0  0  0  0  0  0
    2.2111    1.1796    0.2900 C   0  0  0  0  0  0
    3.6093    1.1332    0.2856 C   0  0  0  0  0  0
    4.2584   -0.0865    0.0733 C   0  0  0  0  0  0
    3.5279   -1.2620   -0.1450 C   0  0  0  0  0  0
    2.1265   -1.2177   -0.1459 C   0  0  0  0  0  0
    1.4128   -2.3609   -0.3528 O   0  0  0  0  0  0
    4.0708   -2.4956   -0.3605 O   0  0  0  0  0  0
    5.4831   -2.6095   -0.3620 C   0  0  0  0  0  0
    4.4090    2.4132    0.4832 C   0  0  0  0  0  0
    3.9246    3.2365    1.6480 C   0  0  0  0  0  0
    3.4436    4.4770    1.5610 C   0  0  0  0  0  0
   -1.6956    0.7883    0.2605 H   0  0  0  0  0  0
   -0.4550    1.8587   -0.4481 H   0  0  0  0  0  0
   -0.4292    1.4968    1.3019 H   0  0  0  0  0  0
    1.7104    2.1231    0.4707 H   0  0  0  0  0  0
    5.3416   -0.1150    0.0740 H   0  0  0  0  0  0
    0.4773   -2.1107   -0.3079 H   0  0  0  0  0  0
    5.6990   -3.6629   -0.5483 H   0  0  0  0  0  0
    5.9174   -2.3183    0.6043 H   0  0  0  0  0  0
    5.9414   -2.0026   -1.1549 H   0  0  0  0  0  0
    5.4640    2.1503    0.6369 H   0  0  0  0  0  0
    4.3715    3.0219   -0.4304 H   0  0  0  0  0  0
    3.9622    2.7422    2.6190 H   0  0  0  0  0  0
    3.3824    4.9975    0.6078 H   0  0  0  0  0  0
    3.1020    5.0212    2.4366 H   0  0  0  0  0  0
  1  2  1  0  0  0
  1 15  1  0  0  0
  1 16  1  0  0  0
  1 17  1  0  0  0
  2  3  1  0  0  0
  3  8  1  0  0  0
  3  4  2  0  0  0
  4  5  1  0  0  0
  4 18  1  0  0  0
  5  6  2  0  0  0
  5 12  1  0  0  0
  6  7  1  0  0  0
  6 19  1  0  0  0
  7  8  2  0  0  0
  7 10  1  0  0  0
  8  9  1  0  0  0
  9 20  1  0  0  0
 10 11  1  0  0  0
 11 21  1  0  0  0
 11 22  1  0  0  0
 11 23  1  0  0  0
 12 13  1  0  0  0
 12 24  1  0  0  0
 12 25  1  0  0  0
 13 14  2  0  0  0
 13 26  1  0  0  0
 14 27  1  0  0  0
 14 28  1  0  0  0
M  END
>  <i_m_Spin_multiplicity> (1)
1

>  <s_j_Task> (1)
Single Point

>  <s_j_QM_Method> (1)
DFT(b3lyp-d3)

>  <s_j_QM_Basis> (1)
cc-pvtz(-f)

>  <i_j_Number_of_canonical_orbitals> (1)
440

>  <i_j_Geometry_convergence_category> (1)
3

>  <r_j_Gas_Phase_Energy> (1)
-653.46265655723

>  <r_j_Final_Energy> (1)
-653.46265655723

>  <r_j_HOMO> (1)
-0.201791404613676

>  <r_j_LUMO> (1)
0.00137623486349766

>  <r_j_Polarizability> (1)
144.818215141041

>  <r_j_QM_Dipole_(debye)> (1)
1.8590987321962

>  <r_j_QM_Dipole_X_(debye)> (1)
-0.233371928194969

>  <r_j_QM_Dipole_Y_(debye)> (1)
1.81044790088466

>  <r_j_QM_Dipole_Z_(debye)> (1)
0.352227252447056

>  <r_j_Lowest_Frequency_(cm-1)> (1)
70.8652690972203

>  <r_j_Highest_Frequency_(cm-1)> (1)
3721.03449960333

>  <r_j_2nd_Lowest_Frequency_(cm-1)> (1)
74.9056438047242

>  <i_j_Num_Negative_Frequencies> (1)
0

>  <r_j_Zero_Point_Energy_(kcal/mol)> (1)
144.691889512914

>  <r_j_Entropy_(cal/mol/K)_298.15K_1.00E+00atm> (1)
114.083468496182

>  <r_j_Enthalpy_(kcal/mol)_298.15K_1.00E+00atm> (1)
9.20250336506053

>  <r_j_Free_Energy_(kcal/mol)_298.15K_1.00E+00atm> (1)
-24.811482767076

>  <r_j_Internal_Energy_(kcal/mol)_298.15K_1.00E+00atm> (1)
8.61001777623326

>  <r_j_Heat_Capacity_(cal/mol/K)_298.15K_1.00E+00atm> (1)
52.8482064908513

>  <r_j_ln(Q)_298.15K_1.00E+00atm> (1)
41.8769388402952

>  <r_j_Total_Internal_Energy_(au)_298.15K_1.00E+00atm> (1)
-653.218354415799

>  <r_j_Total_Enthalpy_(au)_298.15K_1.00E+00atm> (1)
-653.217410229907

>  <r_j_Total_Free_Energy_(au)_298.15K_1.00E+00atm> (1)
-653.271614967458

>  <r_lp_tautomer_probability> (1)
0.99999999999482

>  <r_epik_Ionization_Penalty> (1)
  0.0005

>  <r_epik_Ionization_Penalty_Charging> (1)
  0.0000

>  <r_epik_Ionization_Penalty_Neutral> (1)
  0.0005

>  <r_epik_State_Penalty> (1)
  0.0003

>  <r_epik_Charging_Adjusted_Penalty> (1)
0.000289490938951469

>  <i_epik_Tot_Q> (1)
0

>  <i_epik_Tot_abs_Q> (1)
0

>  <s_lp_Force_Field> (1)
S-OPLS

>  <r_lp_Energy> (1)
19.355142

>  <b_lp_Chiralities_Consistent> (1)
1

$$$$
