2266_Azelaic acid
                    3D
 Schrodinger Suite 2021-3.
 27 26  0  0  1  0            999 V2000
    0.0904    0.0149   -0.2518 C   0  0  0  0  0  0
    1.6208   -0.0922   -0.1661 C   0  0  0  0  0  0
    2.1529   -1.5336   -0.1489 C   0  0  0  0  0  0
    3.6752   -1.6563   -0.0394 C   0  0  0  0  0  0
    4.2099   -3.1166    0.2268 C   0  0  0  0  0  0
    5.3892   -3.3297   -0.1574 O   0  0  0  0  0  0
    3.4188   -3.8920    0.8266 O   0  5  0  0  0  0
   -0.4598    1.4467   -0.1726 C   0  0  0  0  0  0
   -1.9929    1.5205   -0.1752 C   0  0  0  0  0  0
   -2.5446    2.9390    0.0078 C   0  0  0  0  0  0
   -2.3665    3.9112   -1.2210 C   0  0  0  0  0  0
   -2.7107    5.0997   -0.9958 O   0  0  0  0  0  0
   -1.9308    3.3952   -2.2839 O   0  5  0  0  0  0
   -0.2538   -0.4549   -1.1856 H   0  0  0  0  0  0
   -0.3479   -0.5865    0.5608 H   0  0  0  0  0  0
    2.0681    0.4626   -1.0051 H   0  0  0  0  0  0
    1.9629    0.4255    0.7443 H   0  0  0  0  0  0
    1.7221   -2.0937    0.6900 H   0  0  0  0  0  0
    1.8100   -2.0567   -1.0550 H   0  0  0  0  0  0
    4.1733   -1.2587   -0.9341 H   0  0  0  0  0  0
    4.0236   -1.0303    0.7998 H   0  0  0  0  0  0
   -0.0764    1.9235    0.7444 H   0  0  0  0  0  0
   -0.1031    2.0487   -1.0161 H   0  0  0  0  0  0
   -2.3554    1.1417   -1.1388 H   0  0  0  0  0  0
   -2.3831    0.8521    0.6123 H   0  0  0  0  0  0
   -3.6245    2.8965    0.2197 H   0  0  0  0  0  0
   -2.0947    3.4204    0.8888 H   0  0  0  0  0  0
  1  2  1  0  0  0
  1  8  1  0  0  0
  1 14  1  0  0  0
  1 15  1  0  0  0
  2  3  1  0  0  0
  2 16  1  0  0  0
  2 17  1  0  0  0
  3  4  1  0  0  0
  3 18  1  0  0  0
  3 19  1  0  0  0
  4  5  1  0  0  0
  4 20  1  0  0  0
  4 21  1  0  0  0
  5  6  2  0  0  0
  5  7  1  0  0  0
  8  9  1  0  0  0
  8 22  1  0  0  0
  8 23  1  0  0  0
  9 10  1  0  0  0
  9 24  1  0  0  0
  9 25  1  0  0  0
 10 11  1  0  0  0
 10 26  1  0  0  0
 10 27  1  0  0  0
 11 12  2  0  0  0
 11 13  1  0  0  0
M  END
>  <i_m_Spin_multiplicity> (1)
1

>  <s_j_Task> (1)
Single Point

>  <s_j_QM_Method> (1)
DFT(b3lyp-d3)

>  <s_j_QM_Basis> (1)
cc-pvtz(-f)

>  <i_j_Number_of_canonical_orbitals> (1)
423

>  <i_j_Geometry_convergence_category> (1)
3

>  <r_j_Gas_Phase_Energy> (1)
-652.601982351086

>  <r_j_Final_Energy> (1)
-652.601982351086

>  <r_j_HOMO> (1)
0.0516922001662508

>  <r_j_LUMO> (1)
0.236035454357073

>  <r_j_Polarizability> (1)
129.392516676386

>  <r_j_QM_Dipole_(debye)> (1)
4.07433217852719

>  <r_j_QM_Dipole_X_(debye)> (1)
-3.33730305618117

>  <r_j_QM_Dipole_Y_(debye)> (1)
0.67983440767192

>  <r_j_QM_Dipole_Z_(debye)> (1)
2.23616103855052

>  <r_j_Lowest_Frequency_(cm-1)> (1)
47.3231281444793

>  <r_j_Highest_Frequency_(cm-1)> (1)
3026.6229838294

>  <r_j_2nd_Lowest_Frequency_(cm-1)> (1)
59.8455936226383

>  <i_j_Num_Negative_Frequencies> (1)
0

>  <r_j_Zero_Point_Energy_(kcal/mol)> (1)
138.341330691625

>  <r_j_Entropy_(cal/mol/K)_298.15K_1.00E+00atm> (1)
116.026907223984

>  <r_j_Enthalpy_(kcal/mol)_298.15K_1.00E+00atm> (1)
9.08233655839431

>  <r_j_Free_Energy_(kcal/mol)_298.15K_1.00E+00atm> (1)
-25.5110858304366

>  <r_j_Internal_Energy_(kcal/mol)_298.15K_1.00E+00atm> (1)
8.48985096956703

>  <r_j_Heat_Capacity_(cal/mol/K)_298.15K_1.00E+00atm> (1)
49.3143442454557

>  <r_j_ln(Q)_298.15K_1.00E+00atm> (1)
43.0577322242243

>  <r_j_Total_Internal_Energy_(au)_298.15K_1.00E+00atm> (1)
-652.367991967386

>  <r_j_Total_Enthalpy_(au)_298.15K_1.00E+00atm> (1)
-652.367047781493

>  <r_j_Total_Free_Energy_(au)_298.15K_1.00E+00atm> (1)
-652.422175909502

>  <r_epik_Ionization_Penalty> (1)
  0.0098

>  <r_epik_Ionization_Penalty_Charging> (1)
  0.0098

>  <r_epik_Ionization_Penalty_Neutral> (1)
  0.0000

>  <r_epik_State_Penalty> (1)
  0.0074

>  <r_epik_Charging_Adjusted_Penalty> (1)
0.0171886

>  <i_epik_Tot_Q> (1)
-2

>  <i_epik_Tot_abs_Q> (1)
2

>  <s_lp_Force_Field> (1)
S-OPLS

>  <r_lp_Energy> (1)
7.1738

>  <b_lp_Chiralities_Consistent> (1)
1

$$$$
