22833341_Chlorafin
                    3D
 Schrodinger Suite 2021-3.
 62 61  0  0  1  0            999 V2000
   -9.0734   -2.5293    4.7240 C   0  0  0  0  0  0
   -7.9376   -2.9064    5.6803 C   0  0  0  0  0  0
   -6.6449   -3.3403    4.9752 C   0  0  0  0  0  0
   -6.0303   -2.3290    4.0065 C   0  0  0  0  0  0
   -4.7470   -2.8458    3.3621 C   0  0  0  0  0  0
   -4.1506   -1.9264    2.2941 C   0  0  0  0  0  0
   -2.8500   -2.4511    1.6879 C   0  0  0  0  0  0
   -2.2071   -1.4639    0.6900 C   0  0  0  0  0  0
   -0.7249   -1.1820    0.9488 C   0  0  0  0  0  0
   -0.0470   -0.2805   -0.0984 C   0  0  0  0  0  0
    1.3976    0.0954    0.2316 C   0  0  0  0  0  0
    2.1242    0.7750   -0.9326 C   0  0  0  0  0  0
    3.5086    1.3123   -0.5766 C   0  0  0  0  0  0
    4.2501    1.9603   -1.7479 C   0  0  0  0  0  0
    3.5459    3.2124   -2.2906 C   0  0  0  0  0  0
    4.3782    3.9407   -3.3528 C   0  0  0  0  0  0
    3.8075    5.3230   -3.7021 C   0  0  0  0  0  0
    2.4468    5.3076   -4.3995 C   0  0  0  0  0  0
    1.8879    6.6950   -4.7291 C   0  0  0  0  0  0
    1.7487    7.6276   -3.5348 C   0  0  0  0  0  0
    0.2389    6.4493   -5.4977 Cl  0  0  0  0  0  0
    5.0302    6.2649   -4.6863 Cl  0  0  0  0  0  0
    4.5422    2.8868   -4.8363 Cl  0  0  0  0  0  0
    4.5705   -0.0478    0.0629 Cl  0  0  0  0  0  0
   -1.0280    1.2739   -0.2636 Cl  0  0  0  0  0  0
    0.2084   -2.7630    0.9632 Cl  0  0  0  0  0  0
   -3.1580   -4.0648    0.8578 Cl  0  0  0  0  0  0
   -5.6820   -0.7471    4.8951 Cl  0  0  0  0  0  0
   -9.9968   -2.3263    5.2749 H   0  0  0  0  0  0
   -9.2807   -3.3373    4.0121 H   0  0  0  0  0  0
   -8.8340   -1.6281    4.1500 H   0  0  0  0  0  0
   -7.7204   -2.0629    6.3442 H   0  0  0  0  0  0
   -8.2604   -3.7331    6.3246 H   0  0  0  0  0  0
   -5.8879   -3.6097    5.7214 H   0  0  0  0  0  0
   -6.8432   -4.2467    4.3849 H   0  0  0  0  0  0
   -6.7510   -2.0437    3.2356 H   0  0  0  0  0  0
   -4.0058   -3.0349    4.1488 H   0  0  0  0  0  0
   -4.9827   -3.8164    2.9105 H   0  0  0  0  0  0
   -4.8781   -1.7477    1.4925 H   0  0  0  0  0  0
   -3.9238   -0.9512    2.7421 H   0  0  0  0  0  0
   -2.1468   -2.7009    2.4866 H   0  0  0  0  0  0
   -2.3352   -1.8206   -0.3351 H   0  0  0  0  0  0
   -2.7308   -0.5064    0.7591 H   0  0  0  0  0  0
   -0.5825   -0.7554    1.9461 H   0  0  0  0  0  0
   -0.1189   -0.7619   -1.0773 H   0  0  0  0  0  0
    1.3984    0.7440    1.1159 H   0  0  0  0  0  0
    1.9340   -0.8162    0.5026 H   0  0  0  0  0  0
    2.2174    0.0769   -1.7738 H   0  0  0  0  0  0
    1.5268    1.6244   -1.2828 H   0  0  0  0  0  0
    3.4331    2.0123    0.2619 H   0  0  0  0  0  0
    5.2580    2.2293   -1.4139 H   0  0  0  0  0  0
    4.3677    1.2233   -2.5476 H   0  0  0  0  0  0
    2.5710    2.9552   -2.7135 H   0  0  0  0  0  0
    3.3656    3.9182   -1.4672 H   0  0  0  0  0  0
    5.4015    4.0773   -2.9956 H   0  0  0  0  0  0
    3.7455    5.8725   -2.7585 H   0  0  0  0  0  0
    2.5166    4.7170   -5.3153 H   0  0  0  0  0  0
    1.7386    4.7999   -3.7343 H   0  0  0  0  0  0
    2.4892    7.1630   -5.5095 H   0  0  0  0  0  0
    2.7406    7.8835   -3.1470 H   0  0  0  0  0  0
    1.1633    7.1590   -2.7375 H   0  0  0  0  0  0
    1.2538    8.5560   -3.8265 H   0  0  0  0  0  0
  1  2  1  0  0  0
  1 29  1  0  0  0
  1 30  1  0  0  0
  1 31  1  0  0  0
  2  3  1  0  0  0
  2 32  1  0  0  0
  2 33  1  0  0  0
  3  4  1  0  0  0
  3 34  1  0  0  0
  3 35  1  0  0  0
  4  5  1  0  0  0
  4 28  1  0  0  0
  4 36  1  0  0  0
  5  6  1  0  0  0
  5 37  1  0  0  0
  5 38  1  0  0  0
  6  7  1  0  0  0
  6 39  1  0  0  0
  6 40  1  0  0  0
  7  8  1  0  0  0
  7 27  1  0  0  0
  7 41  1  0  0  0
  8  9  1  0  0  0
  8 42  1  0  0  0
  8 43  1  0  0  0
  9 10  1  0  0  0
  9 26  1  0  0  0
  9 44  1  0  0  0
 10 11  1  0  0  0
 10 25  1  0  0  0
 10 45  1  0  0  0
 11 12  1  0  0  0
 11 46  1  0  0  0
 11 47  1  0  0  0
 12 13  1  0  0  0
 12 48  1  0  0  0
 12 49  1  0  0  0
 13 14  1  0  0  0
 13 24  1  0  0  0
 13 50  1  0  0  0
 14 15  1  0  0  0
 14 51  1  0  0  0
 14 52  1  0  0  0
 15 16  1  0  0  0
 15 53  1  0  0  0
 15 54  1  0  0  0
 16 17  1  0  0  0
 16 23  1  0  0  0
 16 55  1  0  0  0
 17 18  1  0  0  0
 17 22  1  0  0  0
 17 56  1  0  0  0
 18 19  1  0  0  0
 18 57  1  0  0  0
 18 58  1  0  0  0
 19 20  1  0  0  0
 19 21  1  0  0  0
 19 59  1  0  0  0
 20 60  1  0  0  0
 20 61  1  0  0  0
 20 62  1  0  0  0
M  END
>  <i_m_Spin_multiplicity> (1)
1

>  <s_j_Task> (1)
Single Point

>  <s_j_QM_Method> (1)
DFT(b3lyp-d3)

>  <s_j_QM_Basis> (1)
cc-pvtz(-f)

>  <i_j_Number_of_canonical_orbitals> (1)
975

>  <i_j_Geometry_convergence_category> (1)
3

>  <r_j_Gas_Phase_Energy> (1)
-4464.86580976642

>  <r_j_Final_Energy> (1)
-4464.86580976642

>  <r_j_HOMO> (1)
-0.239817752434184

>  <r_j_LUMO> (1)
-0.0315728100237987

>  <r_j_Polarizability> (1)
338.732966326749

>  <r_j_QM_Dipole_(debye)> (1)
3.23784661114157

>  <r_j_QM_Dipole_X_(debye)> (1)
-1.00888912162281

>  <r_j_QM_Dipole_Y_(debye)> (1)
1.29087453391733

>  <r_j_QM_Dipole_Z_(debye)> (1)
2.79274709833093

>  <r_j_Lowest_Frequency_(cm-1)> (1)
23.5864235068845

>  <r_j_Highest_Frequency_(cm-1)> (1)
3085.78868647587

>  <r_j_2nd_Lowest_Frequency_(cm-1)> (1)
27.0196059554107

>  <i_j_Num_Negative_Frequencies> (1)
0

>  <r_j_Zero_Point_Energy_(kcal/mol)> (1)
323.913795033434

>  <r_j_Entropy_(cal/mol/K)_298.15K_1.00E+00atm> (1)
202.747180392085

>  <r_j_Enthalpy_(kcal/mol)_298.15K_1.00E+00atm> (1)
21.220587711535

>  <r_j_Free_Energy_(kcal/mol)_298.15K_1.00E+00atm> (1)
-39.2284841223653

>  <r_j_Internal_Energy_(kcal/mol)_298.15K_1.00E+00atm> (1)
20.6281021227077

>  <r_j_Heat_Capacity_(cal/mol/K)_298.15K_1.00E+00atm> (1)
122.761678048017

>  <r_j_ln(Q)_298.15K_1.00E+00atm> (1)
66.2100224243622

>  <r_j_Total_Internal_Energy_(au)_298.15K_1.00E+00atm> (1)
-4464.31674730023

>  <r_j_Total_Enthalpy_(au)_298.15K_1.00E+00atm> (1)
-4464.31580311433

>  <r_j_Total_Free_Energy_(au)_298.15K_1.00E+00atm> (1)
-4464.41213484274

>  <r_lp_tautomer_probability> (1)
1

>  <r_epik_Ionization_Penalty> (1)
  0.0000

>  <r_epik_Ionization_Penalty_Charging> (1)
  0.0000

>  <r_epik_Ionization_Penalty_Neutral> (1)
  0.0000

>  <r_epik_State_Penalty> (1)
  0.0000

>  <r_epik_Charging_Adjusted_Penalty> (1)
0

>  <i_epik_Tot_Q> (1)
0

>  <i_epik_Tot_abs_Q> (1)
0

>  <s_lp_Force_Field> (1)
S-OPLS

>  <r_lp_Energy> (1)
6.574451

>  <b_lp_Chiralities_Consistent> (1)
1

$$$$
