22833468_Oxo-tridecyl Acetate
                    3D
 Schrodinger Suite 2021-3.
 47 46  0  0  1  0            999 V2000
   -4.2301    0.8625    1.2470 C   0  0  0  0  0  0
   -2.7032    0.7583    1.1626 C   0  0  0  0  0  0
   -2.1482   -0.6761    1.2642 C   0  0  0  0  0  0
   -2.5733   -1.3643    2.5711 C   0  0  0  0  0  0
   -0.6075   -0.7036    1.1560 C   0  0  0  0  0  0
    0.0180   -0.0947   -0.1174 C   0  0  0  0  0  0
   -0.4694   -0.8375   -1.3810 C   0  0  0  0  0  0
    0.1170   -0.3252   -2.7008 C   0  0  0  0  0  0
    1.5707    0.0153   -0.0231 C   0  0  0  0  0  0
    2.2769   -1.3568   -0.0164 C   0  0  0  0  0  0
    3.8034   -1.2836   -0.1456 C   0  0  0  0  0  0
    2.0428    0.8779    1.1688 C   0  0  0  0  0  0
    1.3445    2.2239    1.2787 C   0  0  0  0  0  0
    2.0169    2.9643    2.3253 O   0  0  0  0  0  0
    1.4412    4.1352    2.6787 C   0  0  0  0  0  0
    0.4327    4.5708    2.1670 O   0  0  0  0  0  0
    2.2263    4.8047    3.7820 C   0  0  0  0  0  0
   -4.5621    1.8886    1.0596 H   0  0  0  0  0  0
   -4.6083    0.5703    2.2312 H   0  0  0  0  0  0
   -4.7087    0.2162    0.5016 H   0  0  0  0  0  0
   -2.3809    1.2017    0.2133 H   0  0  0  0  0  0
   -2.2477    1.3718    1.9538 H   0  0  0  0  0  0
   -2.5712   -1.2586    0.4331 H   0  0  0  0  0  0
   -2.2374   -0.7863    3.4413 H   0  0  0  0  0  0
   -2.1341   -2.3650    2.6479 H   0  0  0  0  0  0
   -3.6589   -1.4753    2.6428 H   0  0  0  0  0  0
   -0.2115   -0.1885    2.0408 H   0  0  0  0  0  0
   -0.2762   -1.7467    1.2454 H   0  0  0  0  0  0
   -0.3468    0.9357   -0.2188 H   0  0  0  0  0  0
   -0.2720   -1.9128   -1.2805 H   0  0  0  0  0  0
   -1.5603   -0.7427   -1.4295 H   0  0  0  0  0  0
   -0.3791   -0.7953   -3.5558 H   0  0  0  0  0  0
    1.1873   -0.5372   -2.7868 H   0  0  0  0  0  0
   -0.0142    0.7592   -2.7955 H   0  0  0  0  0  0
    1.8986    0.5415   -0.9312 H   0  0  0  0  0  0
    2.0166   -1.8981    0.9021 H   0  0  0  0  0  0
    1.8898   -1.9607   -0.8444 H   0  0  0  0  0  0
    4.2343   -2.2845   -0.2492 H   0  0  0  0  0  0
    4.2706   -0.8169    0.7270 H   0  0  0  0  0  0
    4.0954   -0.7029   -1.0287 H   0  0  0  0  0  0
    1.9145    0.3341    2.1126 H   0  0  0  0  0  0
    3.1162    1.0703    1.0721 H   0  0  0  0  0  0
    1.4047    2.7930    0.3431 H   0  0  0  0  0  0
    0.2865    2.1364    1.5386 H   0  0  0  0  0  0
    2.3030    4.1368    4.6448 H   0  0  0  0  0  0
    1.7309    5.7321    4.0675 H   0  0  0  0  0  0
    3.2440    5.0141    3.4395 H   0  0  0  0  0  0
  1  2  1  0  0  0
  1 18  1  0  0  0
  1 19  1  0  0  0
  1 20  1  0  0  0
  2  3  1  0  0  0
  2 21  1  0  0  0
  2 22  1  0  0  0
  3  4  1  0  0  0
  3  5  1  0  0  0
  3 23  1  0  0  0
  4 24  1  0  0  0
  4 25  1  0  0  0
  4 26  1  0  0  0
  5  6  1  0  0  0
  5 27  1  0  0  0
  5 28  1  0  0  0
  6  7  1  0  0  0
  6  9  1  0  0  0
  6 29  1  0  0  0
  7  8  1  0  0  0
  7 30  1  0  0  0
  7 31  1  0  0  0
  8 32  1  0  0  0
  8 33  1  0  0  0
  8 34  1  0  0  0
  9 10  1  0  0  0
  9 12  1  0  0  0
  9 35  1  0  0  0
 10 11  1  0  0  0
 10 36  1  0  0  0
 10 37  1  0  0  0
 11 38  1  0  0  0
 11 39  1  0  0  0
 11 40  1  0  0  0
 12 13  1  0  0  0
 12 41  1  0  0  0
 12 42  1  0  0  0
 13 14  1  0  0  0
 13 43  1  0  0  0
 13 44  1  0  0  0
 14 15  1  0  0  0
 15 16  2  0  0  0
 15 17  1  0  0  0
 17 45  1  0  0  0
 17 46  1  0  0  0
 17 47  1  0  0  0
M  END
>  <i_m_Spin_multiplicity> (1)
1

>  <s_j_Task> (1)
Single Point

>  <s_j_QM_Method> (1)
DFT(b3lyp-d3)

>  <s_j_QM_Basis> (1)
cc-pvtz(-f)

>  <i_j_Number_of_canonical_orbitals> (1)
656

>  <i_j_Geometry_convergence_category> (1)
3

>  <r_j_Gas_Phase_Energy> (1)
-740.44730603955

>  <r_j_Final_Energy> (1)
-740.44730603955

>  <r_j_HOMO> (1)
-0.269221388177762

>  <r_j_LUMO> (1)
0.0112549559553567

>  <r_j_Polarizability> (1)
186.62376510257

>  <r_j_QM_Dipole_(debye)> (1)
1.90944354692091

>  <r_j_QM_Dipole_X_(debye)> (1)
1.26381449102566

>  <r_j_QM_Dipole_Y_(debye)> (1)
-1.42639632572763

>  <r_j_QM_Dipole_Z_(debye)> (1)
0.118916412248983

>  <r_j_Lowest_Frequency_(cm-1)> (1)
33.8443855501104

>  <r_j_Highest_Frequency_(cm-1)> (1)
3117.14099485483

>  <r_j_2nd_Lowest_Frequency_(cm-1)> (1)
56.0859900334035

>  <i_j_Num_Negative_Frequencies> (1)
0

>  <r_j_Zero_Point_Energy_(kcal/mol)> (1)
270.445929706057

>  <r_j_Entropy_(cal/mol/K)_298.15K_1.00E+00atm> (1)
142.494897491302

>  <r_j_Enthalpy_(kcal/mol)_298.15K_1.00E+00atm> (1)
13.3008880772444

>  <r_j_Free_Energy_(kcal/mol)_298.15K_1.00E+00atm> (1)
-29.1839656097873

>  <r_j_Internal_Energy_(kcal/mol)_298.15K_1.00E+00atm> (1)
12.7084024884171

>  <r_j_Heat_Capacity_(cal/mol/K)_298.15K_1.00E+00atm> (1)
77.8106186058574

>  <r_j_ln(Q)_298.15K_1.00E+00atm> (1)
49.2568362169822

>  <r_j_Total_Internal_Energy_(au)_298.15K_1.00E+00atm> (1)
-739.996070885769

>  <r_j_Total_Enthalpy_(au)_298.15K_1.00E+00atm> (1)
-739.995126699877

>  <r_j_Total_Free_Energy_(au)_298.15K_1.00E+00atm> (1)
-740.062830624229

>  <r_lp_tautomer_probability> (1)
1

>  <r_epik_Ionization_Penalty> (1)
  0.0000

>  <r_epik_Ionization_Penalty_Charging> (1)
  0.0000

>  <r_epik_Ionization_Penalty_Neutral> (1)
  0.0000

>  <r_epik_State_Penalty> (1)
  0.0000

>  <r_epik_Charging_Adjusted_Penalty> (1)
0

>  <i_epik_Tot_Q> (1)
0

>  <i_epik_Tot_abs_Q> (1)
0

>  <s_lp_Force_Field> (1)
S-OPLS

>  <r_lp_Energy> (1)
10.6548

>  <b_lp_Chiralities_Consistent> (1)
1

>  <s_epik_Chemistry_Notes> (1)
This compound has an ester and may undergo hydrolysis at high or low pH.

$$$$
