23296_Undecane, 2,6,10-trimethyl
                    3D
 Schrodinger Suite 2021-3.
 44 43  0  0  1  0            999 V2000
   -4.1442    2.9678    0.1932 C   0  0  0  0  0  0
   -2.6285    3.0300   -0.0444 C   0  0  0  0  0  0
   -2.3160    3.8791   -1.2855 C   0  0  0  0  0  0
   -2.0411    1.6093   -0.1421 C   0  0  0  0  0  0
   -0.5110    1.5418   -0.2285 C   0  0  0  0  0  0
    0.0177    0.1011   -0.2056 C   0  0  0  0  0  0
    1.5525   -0.0300   -0.1485 C   0  0  0  0  0  0
    2.2286    0.6173   -1.3672 C   0  0  0  0  0  0
    1.9998   -1.5004   -0.0214 C   0  0  0  0  0  0
    1.5299   -2.2253    1.2469 C   0  0  0  0  0  0
    2.1575   -3.6171    1.3965 C   0  0  0  0  0  0
    1.6112   -4.4567    2.5666 C   0  0  0  0  0  0
    1.8566   -3.7899    3.9282 C   0  0  0  0  0  0
    2.2173   -5.8672    2.5437 C   0  0  0  0  0  0
   -4.6494    2.4837   -0.6520 H   0  0  0  0  0  0
   -4.5722    3.9701    0.3051 H   0  0  0  0  0  0
   -4.3852    2.3959    1.0961 H   0  0  0  0  0  0
   -2.1684    3.5206    0.8271 H   0  0  0  0  0  0
   -2.7213    3.4049   -2.1884 H   0  0  0  0  0  0
   -1.2404    4.0139   -1.4332 H   0  0  0  0  0  0
   -2.7658    4.8746   -1.2032 H   0  0  0  0  0  0
   -2.3704    1.0342    0.7349 H   0  0  0  0  0  0
   -2.4781    1.1029   -1.0161 H   0  0  0  0  0  0
   -0.1718    2.0471   -1.1391 H   0  0  0  0  0  0
   -0.0758    2.1001    0.6136 H   0  0  0  0  0  0
   -0.4188   -0.4080    0.6625 H   0  0  0  0  0  0
   -0.3520   -0.4379   -1.0912 H   0  0  0  0  0  0
    1.8980    0.5007    0.7531 H   0  0  0  0  0  0
    1.8775    0.1511   -2.2965 H   0  0  0  0  0  0
    3.3164    0.4943   -1.3248 H   0  0  0  0  0  0
    2.0211    1.6892   -1.4335 H   0  0  0  0  0  0
    1.6585   -2.0564   -0.9076 H   0  0  0  0  0  0
    3.0981   -1.5315   -0.0531 H   0  0  0  0  0  0
    1.7745   -1.6067    2.1203 H   0  0  0  0  0  0
    0.4373   -2.3295    1.2415 H   0  0  0  0  0  0
    2.0016   -4.1759    0.4626 H   0  0  0  0  0  0
    3.2475   -3.5156    1.5088 H   0  0  0  0  0  0
    0.5234   -4.5527    2.4273 H   0  0  0  0  0  0
    2.9299   -3.6298    4.0909 H   0  0  0  0  0  0
    1.4872   -4.4188    4.7456 H   0  0  0  0  0  0
    1.3583   -2.8191    4.0072 H   0  0  0  0  0  0
    3.3049   -5.8239    2.6819 H   0  0  0  0  0  0
    2.0233   -6.3714    1.5906 H   0  0  0  0  0  0
    1.8061   -6.4912    3.3448 H   0  0  0  0  0  0
  1  2  1  0  0  0
  1 15  1  0  0  0
  1 16  1  0  0  0
  1 17  1  0  0  0
  2  3  1  0  0  0
  2  4  1  0  0  0
  2 18  1  0  0  0
  3 19  1  0  0  0
  3 20  1  0  0  0
  3 21  1  0  0  0
  4  5  1  0  0  0
  4 22  1  0  0  0
  4 23  1  0  0  0
  5  6  1  0  0  0
  5 24  1  0  0  0
  5 25  1  0  0  0
  6  7  1  0  0  0
  6 26  1  0  0  0
  6 27  1  0  0  0
  7  8  1  0  0  0
  7  9  1  0  0  0
  7 28  1  0  0  0
  8 29  1  0  0  0
  8 30  1  0  0  0
  8 31  1  0  0  0
  9 10  1  0  0  0
  9 32  1  0  0  0
  9 33  1  0  0  0
 10 11  1  0  0  0
 10 34  1  0  0  0
 10 35  1  0  0  0
 11 12  1  0  0  0
 11 36  1  0  0  0
 11 37  1  0  0  0
 12 13  1  0  0  0
 12 14  1  0  0  0
 12 38  1  0  0  0
 13 39  1  0  0  0
 13 40  1  0  0  0
 13 41  1  0  0  0
 14 42  1  0  0  0
 14 43  1  0  0  0
 14 44  1  0  0  0
M  END
>  <i_m_Spin_multiplicity> (1)
1

>  <s_j_Task> (1)
Single Point

>  <s_j_QM_Method> (1)
DFT(b3lyp-d3)

>  <s_j_QM_Basis> (1)
cc-pvtz(-f)

>  <i_j_Number_of_canonical_orbitals> (1)
588

>  <i_j_Geometry_convergence_category> (1)
0

>  <r_j_Gas_Phase_Energy> (1)
-551.818627980224

>  <r_j_Final_Energy> (1)
-551.818627980224

>  <r_j_HOMO> (1)
-0.292074850162741

>  <r_j_LUMO> (1)
-0.0042194084333832

>  <r_j_Polarizability> (1)
173.397990063079

>  <r_j_QM_Dipole_(debye)> (1)
0.13487136486085

>  <r_j_QM_Dipole_X_(debye)> (1)
-0.0271298175265436

>  <r_j_QM_Dipole_Y_(debye)> (1)
0.05865062534276

>  <r_j_QM_Dipole_Z_(debye)> (1)
0.118382271507638

>  <r_j_Lowest_Frequency_(cm-1)> (1)
48.0212233002374

>  <r_j_Highest_Frequency_(cm-1)> (1)
3056.54067030902

>  <r_j_2nd_Lowest_Frequency_(cm-1)> (1)
70.2567879067087

>  <i_j_Num_Negative_Frequencies> (1)
0

>  <r_j_Zero_Point_Energy_(kcal/mol)> (1)
260.709828951676

>  <r_j_Entropy_(cal/mol/K)_298.15K_1.00E+00atm> (1)
130.483030820848

>  <r_j_Enthalpy_(kcal/mol)_298.15K_1.00E+00atm> (1)
11.577078646115

>  <r_j_Free_Energy_(kcal/mol)_298.15K_1.00E+00atm> (1)
-27.3264369931208

>  <r_j_Internal_Energy_(kcal/mol)_298.15K_1.00E+00atm> (1)
10.9845930572878

>  <r_j_Heat_Capacity_(cal/mol/K)_298.15K_1.00E+00atm> (1)
68.1511147322167

>  <r_j_ln(Q)_298.15K_1.00E+00atm> (1)
46.1216905667004

>  <r_j_Total_Internal_Energy_(au)_298.15K_1.00E+00atm> (1)
-551.385655355908

>  <r_j_Total_Enthalpy_(au)_298.15K_1.00E+00atm> (1)
-551.384711170016

>  <r_j_Total_Free_Energy_(au)_298.15K_1.00E+00atm> (1)
-551.44670786887

>  <r_lp_tautomer_probability> (1)
1

>  <r_epik_Ionization_Penalty> (1)
  0.0000

>  <r_epik_Ionization_Penalty_Charging> (1)
  0.0000

>  <r_epik_Ionization_Penalty_Neutral> (1)
  0.0000

>  <r_epik_State_Penalty> (1)
  0.0000

>  <r_epik_Charging_Adjusted_Penalty> (1)
0

>  <i_epik_Tot_Q> (1)
0

>  <i_epik_Tot_abs_Q> (1)
0

>  <s_lp_Force_Field> (1)
S-OPLS

>  <r_lp_Energy> (1)
7.921697

>  <b_lp_Chiralities_Consistent> (1)
1

$$$$
