2336_Benzo[a]pyrene
                    3D
 Schrodinger Suite 2021-3.
 32 36  0  0  1  0            999 V2000
    0.0003   -0.6022   -1.2253 C   0  0  0  0  0  0
    0.0187   -2.0155   -1.2701 C   0  0  0  0  0  0
    0.0391   -2.7535   -0.1066 C   0  0  0  0  0  0
    0.0423   -2.1273    1.1687 C   0  0  0  0  0  0
    0.0633   -2.8618    2.4090 C   0  0  0  0  0  0
    0.0648   -2.1544    3.6391 C   0  0  0  0  0  0
    0.0456   -0.7133    3.6517 C   0  0  0  0  0  0
    0.0257   -0.0233    2.4529 C   0  0  0  0  0  0
    0.0235   -0.6931    1.2080 C   0  0  0  0  0  0
    0.0028    0.0400   -0.0109 C   0  0  0  0  0  0
    0.0478   -0.0281    4.9196 C   0  0  0  0  0  0
    0.0672   -0.7074    6.0925 C   0  0  0  0  0  0
    0.0866   -2.1483    6.1213 C   0  0  0  0  0  0
    0.0853   -2.8607    4.8815 C   0  0  0  0  0  0
    0.1046   -4.2854    4.8941 C   0  0  0  0  0  0
    0.1246   -4.9663    6.1287 C   0  0  0  0  0  0
    0.1256   -4.2632    7.3249 C   0  0  0  0  0  0
    0.1067   -2.8643    7.3234 C   0  0  0  0  0  0
    0.1027   -4.9726    3.6425 C   0  0  0  0  0  0
    0.0831   -4.2928    2.4595 C   0  0  0  0  0  0
   -0.0156   -0.0304   -2.1483 H   0  0  0  0  0  0
    0.0167   -2.5229   -2.2301 H   0  0  0  0  0  0
    0.0528   -3.8347   -0.1777 H   0  0  0  0  0  0
    0.0113    1.0639    2.4619 H   0  0  0  0  0  0
   -0.0112    1.1258    0.0387 H   0  0  0  0  0  0
    0.0333    1.0585    4.9112 H   0  0  0  0  0  0
    0.0686   -0.1740    7.0393 H   0  0  0  0  0  0
    0.1393   -6.0528    6.1304 H   0  0  0  0  0  0
    0.1411   -4.8002    8.2685 H   0  0  0  0  0  0
    0.1075   -2.3196    8.2635 H   0  0  0  0  0  0
    0.1174   -6.0593    3.6467 H   0  0  0  0  0  0
    0.0826   -4.8593    1.5365 H   0  0  0  0  0  0
  1 10  1  0  0  0
  1  2  2  0  0  0
  1 21  1  0  0  0
  2  3  1  0  0  0
  2 22  1  0  0  0
  3  4  2  0  0  0
  3 23  1  0  0  0
  4  9  1  0  0  0
  4  5  1  0  0  0
  5 20  1  0  0  0
  5  6  2  0  0  0
  6 14  1  0  0  0
  6  7  1  0  0  0
  7  8  2  0  0  0
  7 11  1  0  0  0
  8  9  1  0  0  0
  8 24  1  0  0  0
  9 10  2  0  0  0
 10 25  1  0  0  0
 11 12  2  0  0  0
 11 26  1  0  0  0
 12 13  1  0  0  0
 12 27  1  0  0  0
 13 18  1  0  0  0
 13 14  2  0  0  0
 14 15  1  0  0  0
 15 16  2  0  0  0
 15 19  1  0  0  0
 16 17  1  0  0  0
 16 28  1  0  0  0
 17 18  2  0  0  0
 17 29  1  0  0  0
 18 30  1  0  0  0
 19 20  2  0  0  0
 19 31  1  0  0  0
 20 32  1  0  0  0
M  END
>  <i_m_Spin_multiplicity> (1)
1

>  <s_j_Task> (1)
Single Point

>  <s_j_QM_Method> (1)
DFT(b3lyp-d3)

>  <s_j_QM_Basis> (1)
cc-pvtz(-f)

>  <i_j_Number_of_canonical_orbitals> (1)
547

>  <i_j_Geometry_convergence_category> (1)
0

>  <r_j_Gas_Phase_Energy> (1)
-769.65943164593

>  <r_j_Final_Energy> (1)
-769.65943164593

>  <r_j_HOMO> (1)
-0.228731645615355

>  <r_j_LUMO> (1)
-0.106931805092539

>  <r_j_Polarizability> (1)
254.361508164665

>  <r_j_QM_Dipole_(debye)> (1)
0.025550164793574

>  <r_j_QM_Dipole_X_(debye)> (1)
-1.91416277983442e-05

>  <r_j_QM_Dipole_Y_(debye)> (1)
-0.0123498563756656

>  <r_j_QM_Dipole_Z_(debye)> (1)
-0.0223671992452632

>  <r_j_Lowest_Frequency_(cm-1)> (1)
78.6096779624911

>  <r_j_Highest_Frequency_(cm-1)> (1)
3171.88662176651

>  <r_j_2nd_Lowest_Frequency_(cm-1)> (1)
108.724288988307

>  <i_j_Num_Negative_Frequencies> (1)
0

>  <r_j_Zero_Point_Energy_(kcal/mol)> (1)
158.730822240989

>  <r_j_Entropy_(cal/mol/K)_298.15K_1.00E+00atm> (1)
108.207472367019

>  <r_j_Enthalpy_(kcal/mol)_298.15K_1.00E+00atm> (1)
8.39542924424511

>  <r_j_Free_Energy_(kcal/mol)_298.15K_1.00E+00atm> (1)
-23.8666286419816

>  <r_j_Internal_Energy_(kcal/mol)_298.15K_1.00E+00atm> (1)
7.80294365541783

>  <r_j_Heat_Capacity_(cal/mol/K)_298.15K_1.00E+00atm> (1)
55.6440254942903

>  <r_j_ln(Q)_298.15K_1.00E+00atm> (1)
40.2822095457572

>  <r_j_Total_Internal_Energy_(au)_298.15K_1.00E+00atm> (1)
-769.394043195464

>  <r_j_Total_Enthalpy_(au)_298.15K_1.00E+00atm> (1)
-769.393099009571

>  <r_j_Total_Free_Energy_(au)_298.15K_1.00E+00atm> (1)
-769.444511871733

>  <r_lp_tautomer_probability> (1)
1

>  <r_epik_Ionization_Penalty> (1)
  0.0000

>  <r_epik_Ionization_Penalty_Charging> (1)
  0.0000

>  <r_epik_Ionization_Penalty_Neutral> (1)
  0.0000

>  <r_epik_State_Penalty> (1)
  0.0000

>  <r_epik_Charging_Adjusted_Penalty> (1)
0

>  <i_epik_Tot_Q> (1)
0

>  <i_epik_Tot_abs_Q> (1)
0

>  <s_lp_Force_Field> (1)
S-OPLS

>  <r_lp_Energy> (1)
49.3301

>  <b_lp_Chiralities_Consistent> (1)
1

$$$$
