23415_2-methyldecane
                    3D
 Schrodinger Suite 2021-3.
 35 34  0  0  1  0            999 V2000
   -4.2014    3.0478    0.0831 C   0  0  0  0  0  0
   -2.6713    2.9805    0.0775 C   0  0  0  0  0  0
   -2.1330    1.5463    0.0137 C   0  0  0  0  0  0
   -0.6023    1.4704    0.0072 C   0  0  0  0  0  0
   -0.0605    0.0377   -0.0495 C   0  0  0  0  0  0
    1.4706   -0.0329   -0.0553 C   0  0  0  0  0  0
    2.0160   -1.4653   -0.0965 C   0  0  0  0  0  0
    3.5484   -1.5218   -0.1116 C   0  0  0  0  0  0
    4.1537   -2.9351   -0.0240 C   0  0  0  0  0  0
    5.6819   -2.8562    0.1027 C   0  0  0  0  0  0
    3.7604   -3.8143   -1.2202 C   0  0  0  0  0  0
   -4.5595    4.0815    0.1299 H   0  0  0  0  0  0
   -4.6161    2.5117    0.9446 H   0  0  0  0  0  0
   -4.6193    2.5905   -0.8211 H   0  0  0  0  0  0
   -2.2808    3.5510   -0.7762 H   0  0  0  0  0  0
   -2.2778    3.4738    0.9767 H   0  0  0  0  0  0
   -2.5226    0.9744    0.8683 H   0  0  0  0  0  0
   -2.5265    1.0506   -0.8854 H   0  0  0  0  0  0
   -0.2140    2.0397   -0.8495 H   0  0  0  0  0  0
   -0.2104    1.9708    0.9044 H   0  0  0  0  0  0
   -0.4474   -0.5313    0.8080 H   0  0  0  0  0  0
   -0.4515   -0.4644   -0.9461 H   0  0  0  0  0  0
    1.8569    0.5279   -0.9184 H   0  0  0  0  0  0
    1.8608    0.4791    0.8360 H   0  0  0  0  0  0
    1.6404   -2.0217    0.7744 H   0  0  0  0  0  0
    1.6112   -1.9747   -0.9804 H   0  0  0  0  0  0
    3.9220   -1.0306   -1.0227 H   0  0  0  0  0  0
    3.9297   -0.9259    0.7297 H   0  0  0  0  0  0
    3.7618   -3.4090    0.8890 H   0  0  0  0  0  0
    6.1211   -2.3889   -0.7876 H   0  0  0  0  0  0
    6.1256   -3.8522    0.2072 H   0  0  0  0  0  0
    5.9816   -2.2610    0.9722 H   0  0  0  0  0  0
    4.0958   -3.3583   -2.1603 H   0  0  0  0  0  0
    2.6781   -3.9594   -1.2867 H   0  0  0  0  0  0
    4.2231   -4.8045   -1.1481 H   0  0  0  0  0  0
  1  2  1  0  0  0
  1 12  1  0  0  0
  1 13  1  0  0  0
  1 14  1  0  0  0
  2  3  1  0  0  0
  2 15  1  0  0  0
  2 16  1  0  0  0
  3  4  1  0  0  0
  3 17  1  0  0  0
  3 18  1  0  0  0
  4  5  1  0  0  0
  4 19  1  0  0  0
  4 20  1  0  0  0
  5  6  1  0  0  0
  5 21  1  0  0  0
  5 22  1  0  0  0
  6  7  1  0  0  0
  6 23  1  0  0  0
  6 24  1  0  0  0
  7  8  1  0  0  0
  7 25  1  0  0  0
  7 26  1  0  0  0
  8  9  1  0  0  0
  8 27  1  0  0  0
  8 28  1  0  0  0
  9 10  1  0  0  0
  9 11  1  0  0  0
  9 29  1  0  0  0
 10 30  1  0  0  0
 10 31  1  0  0  0
 10 32  1  0  0  0
 11 33  1  0  0  0
 11 34  1  0  0  0
 11 35  1  0  0  0
M  END
>  <i_m_Spin_multiplicity> (1)
1

>  <s_j_Task> (1)
Single Point

>  <s_j_QM_Method> (1)
DFT(b3lyp-d3)

>  <s_j_QM_Basis> (1)
cc-pvtz(-f)

>  <i_j_Number_of_canonical_orbitals> (1)
465

>  <i_j_Geometry_convergence_category> (1)
3

>  <r_j_Gas_Phase_Energy> (1)
-433.830153401276

>  <r_j_Final_Energy> (1)
-433.830153401276

>  <r_j_HOMO> (1)
-0.295589242393414

>  <r_j_LUMO> (1)
0.0192094295766486

>  <r_j_Polarizability> (1)
137.688933248694

>  <r_j_QM_Dipole_(debye)> (1)
0.086536929106181

>  <r_j_QM_Dipole_X_(debye)> (1)
-0.0296039160189959

>  <r_j_QM_Dipole_Y_(debye)> (1)
0.00370490064692516

>  <r_j_QM_Dipole_Z_(debye)> (1)
0.0812312868706685

>  <r_j_Lowest_Frequency_(cm-1)> (1)
52.5884508246106

>  <r_j_Highest_Frequency_(cm-1)> (1)
3054.69469917661

>  <r_j_2nd_Lowest_Frequency_(cm-1)> (1)
64.8056563550471

>  <i_j_Num_Negative_Frequencies> (1)
0

>  <r_j_Zero_Point_Energy_(kcal/mol)> (1)
207.47741392107

>  <r_j_Entropy_(cal/mol/K)_298.15K_1.00E+00atm> (1)
114.590317036227

>  <r_j_Enthalpy_(kcal/mol)_298.15K_1.00E+00atm> (1)
9.34685583216192

>  <r_j_Free_Energy_(kcal/mol)_298.15K_1.00E+00atm> (1)
-24.8182471921892

>  <r_j_Internal_Energy_(kcal/mol)_298.15K_1.00E+00atm> (1)
8.75437024333465

>  <r_j_Heat_Capacity_(cal/mol/K)_298.15K_1.00E+00atm> (1)
52.8967288063555

>  <r_j_ln(Q)_298.15K_1.00E+00atm> (1)
41.8883558692335

>  <r_j_Total_Internal_Energy_(au)_298.15K_1.00E+00atm> (1)
-433.485566116937

>  <r_j_Total_Enthalpy_(au)_298.15K_1.00E+00atm> (1)
-433.484621931044

>  <r_j_Total_Free_Energy_(au)_298.15K_1.00E+00atm> (1)
-433.539067488694

>  <r_lp_tautomer_probability> (1)
1

>  <r_epik_Ionization_Penalty> (1)
  0.0000

>  <r_epik_Ionization_Penalty_Charging> (1)
  0.0000

>  <r_epik_Ionization_Penalty_Neutral> (1)
  0.0000

>  <r_epik_State_Penalty> (1)
  0.0000

>  <r_epik_Charging_Adjusted_Penalty> (1)
0

>  <i_epik_Tot_Q> (1)
0

>  <i_epik_Tot_abs_Q> (1)
0

>  <s_lp_Force_Field> (1)
S-OPLS

>  <r_lp_Energy> (1)
4.922991

>  <b_lp_Chiralities_Consistent> (1)
1

$$$$
