23448_2,4,4'-Trichlorobiphenyl
                    3D
 Schrodinger Suite 2021-3.
 22 23  0  0  1  0            999 V2000
   -0.7109   -1.2121    0.0128 C   0  0  0  0  0  0
   -2.1042   -1.2228   -0.0171 C   0  0  0  0  0  0
   -2.7905   -0.0100   -0.0320 C   0  0  0  0  0  0
   -2.1086    1.2052   -0.0171 C   0  0  0  0  0  0
   -0.7152    1.1995    0.0127 C   0  0  0  0  0  0
   -0.0028   -0.0050    0.0271 C   0  0  0  0  0  0
    1.4885   -0.0024    0.0375 C   0  0  0  0  0  0
    2.2357   -0.0010    1.2246 C   0  0  0  0  0  0
    3.6303    0.0013    1.2195 C   0  0  0  0  0  0
    4.2934    0.0022   -0.0049 C   0  0  0  0  0  0
    3.5911    0.0010   -1.2080 C   0  0  0  0  0  0
    2.1990   -0.0013   -1.1704 C   0  0  0  0  0  0
    6.0500    0.0050   -0.0240 Cl  0  0  0  0  0  0
    1.4187   -0.0020    2.7808 Cl  0  0  0  0  0  0
   -4.5496   -0.0132   -0.0711 Cl  0  0  0  0  0  0
   -0.1674   -2.1518    0.0276 H   0  0  0  0  0  0
   -2.6528   -2.1578   -0.0283 H   0  0  0  0  0  0
   -2.6605    2.1382   -0.0284 H   0  0  0  0  0  0
   -0.1751    2.1412    0.0275 H   0  0  0  0  0  0
    4.1838    0.0023    2.1500 H   0  0  0  0  0  0
    4.1238    0.0017   -2.1517 H   0  0  0  0  0  0
    1.6383   -0.0023   -2.1001 H   0  0  0  0  0  0
  1  6  1  0  0  0
  1  2  2  0  0  0
  1 16  1  0  0  0
  2  3  1  0  0  0
  2 17  1  0  0  0
  3  4  2  0  0  0
  3 15  1  0  0  0
  4  5  1  0  0  0
  4 18  1  0  0  0
  5  6  2  0  0  0
  5 19  1  0  0  0
  6  7  1  0  0  0
  7 12  1  0  0  0
  7  8  2  0  0  0
  8  9  1  0  0  0
  8 14  1  0  0  0
  9 10  2  0  0  0
  9 20  1  0  0  0
 10 11  1  0  0  0
 10 13  1  0  0  0
 11 12  2  0  0  0
 11 21  1  0  0  0
 12 22  1  0  0  0
M  END
>  <i_m_Spin_multiplicity> (1)
1

>  <s_j_Task> (1)
Single Point

>  <s_j_QM_Method> (1)
DFT(b3lyp-d3)

>  <s_j_QM_Basis> (1)
cc-pvtz(-f)

>  <i_j_Number_of_canonical_orbitals> (1)
410

>  <i_j_Geometry_convergence_category> (1)
0

>  <r_j_Gas_Phase_Energy> (1)
-1842.35285903512

>  <r_j_Final_Energy> (1)
-1842.35285903512

>  <r_j_HOMO> (1)
-0.257646035956701

>  <r_j_LUMO> (1)
-0.0488952866322608

>  <r_j_Polarizability> (1)
173.679787836722

>  <r_j_QM_Dipole_(debye)> (1)
1.36917320160614

>  <r_j_QM_Dipole_X_(debye)> (1)
0.551636832843004

>  <r_j_QM_Dipole_Y_(debye)> (1)
0.000897356067867712

>  <r_j_QM_Dipole_Z_(debye)> (1)
-1.25312858693729

>  <r_j_Lowest_Frequency_(cm-1)> (1)
53.8262730639763

>  <r_j_Highest_Frequency_(cm-1)> (1)
3180.2016515127

>  <r_j_2nd_Lowest_Frequency_(cm-1)> (1)
57.7915774558887

>  <i_j_Num_Negative_Frequencies> (1)
0

>  <r_j_Zero_Point_Energy_(kcal/mol)> (1)
95.3228031226101

>  <r_j_Entropy_(cal/mol/K)_298.15K_1.00E+00atm> (1)
110.69591566293

>  <r_j_Enthalpy_(kcal/mol)_298.15K_1.00E+00atm> (1)
8.28944806802838

>  <r_j_Free_Energy_(kcal/mol)_298.15K_1.00E+00atm> (1)
-24.7145391868741

>  <r_j_Internal_Energy_(kcal/mol)_298.15K_1.00E+00atm> (1)
7.69696247920111

>  <r_j_Heat_Capacity_(cal/mol/K)_298.15K_1.00E+00atm> (1)
47.5090305245939

>  <r_j_ln(Q)_298.15K_1.00E+00atm> (1)
41.7133170036968

>  <r_j_Total_Internal_Energy_(au)_298.15K_1.00E+00atm> (1)
-1842.18868658748

>  <r_j_Total_Enthalpy_(au)_298.15K_1.00E+00atm> (1)
-1842.18774240159

>  <r_j_Total_Free_Energy_(au)_298.15K_1.00E+00atm> (1)
-1842.24033760347

>  <r_lp_tautomer_probability> (1)
1

>  <r_epik_Ionization_Penalty> (1)
  0.0000

>  <r_epik_Ionization_Penalty_Charging> (1)
  0.0000

>  <r_epik_Ionization_Penalty_Neutral> (1)
  0.0000

>  <r_epik_State_Penalty> (1)
  0.0000

>  <r_epik_Charging_Adjusted_Penalty> (1)
0

>  <i_epik_Tot_Q> (1)
0

>  <i_epik_Tot_abs_Q> (1)
0

>  <s_lp_Force_Field> (1)
S-OPLS

>  <r_lp_Energy> (1)
24.2437

>  <b_lp_Chiralities_Consistent> (1)
1

$$$$
