23459_2-methylundecane
                    3D
 Schrodinger Suite 2021-3.
 38 37  0  0  1  0            999 V2000
   -5.0602    4.1739   -0.2718 C   0  0  0  0  0  0
   -4.4060    2.7922   -0.1784 C   0  0  0  0  0  0
   -2.8747    2.8539   -0.1320 C   0  0  0  0  0  0
   -2.2123    1.4745   -0.0428 C   0  0  0  0  0  0
   -0.6813    1.5330    0.0086 C   0  0  0  0  0  0
   -0.0293    0.1467    0.0964 C   0  0  0  0  0  0
    1.5067    0.1609    0.0756 C   0  0  0  0  0  0
    2.1515    0.8363    1.2937 C   0  0  0  0  0  0
    3.6834    0.7671    1.2693 C   0  0  0  0  0  0
    4.3839    1.3263    2.5218 C   0  0  0  0  0  0
    4.1075    2.8231    2.7272 C   0  0  0  0  0  0
    5.8956    1.0667    2.4507 C   0  0  0  0  0  0
   -6.1523    4.1017   -0.3024 H   0  0  0  0  0  0
   -4.7354    4.7033   -1.1750 H   0  0  0  0  0  0
   -4.7909    4.7965    0.5891 H   0  0  0  0  0  0
   -4.7733    2.2706    0.7159 H   0  0  0  0  0  0
   -4.7167    2.1791   -1.0354 H   0  0  0  0  0  0
   -2.5053    3.3784   -1.0250 H   0  0  0  0  0  0
   -2.5623    3.4648    0.7273 H   0  0  0  0  0  0
   -2.5849    0.9500    0.8488 H   0  0  0  0  0  0
   -2.5245    0.8656   -0.9034 H   0  0  0  0  0  0
   -0.3057    2.0533   -0.8845 H   0  0  0  0  0  0
   -0.3769    2.1460    0.8670 H   0  0  0  0  0  0
   -0.3743   -0.3576    1.0106 H   0  0  0  0  0  0
   -0.3904   -0.4656   -0.7411 H   0  0  0  0  0  0
    1.8707   -0.8735    0.0108 H   0  0  0  0  0  0
    1.8525    0.6612   -0.8404 H   0  0  0  0  0  0
    1.8299    1.8827    1.3448 H   0  0  0  0  0  0
    1.7801    0.3563    2.2110 H   0  0  0  0  0  0
    3.9864   -0.2813    1.1380 H   0  0  0  0  0  0
    4.0580    1.3023    0.3837 H   0  0  0  0  0  0
    3.9876    0.7850    3.3944 H   0  0  0  0  0  0
    4.4482    3.4006    1.8586 H   0  0  0  0  0  0
    4.6383    3.2028    3.6069 H   0  0  0  0  0  0
    3.0427    3.0302    2.8693 H   0  0  0  0  0  0
    6.3386    1.5880    1.5929 H   0  0  0  0  0  0
    6.1139   -0.0010    2.3394 H   0  0  0  0  0  0
    6.4043    1.4222    3.3533 H   0  0  0  0  0  0
  1  2  1  0  0  0
  1 13  1  0  0  0
  1 14  1  0  0  0
  1 15  1  0  0  0
  2  3  1  0  0  0
  2 16  1  0  0  0
  2 17  1  0  0  0
  3  4  1  0  0  0
  3 18  1  0  0  0
  3 19  1  0  0  0
  4  5  1  0  0  0
  4 20  1  0  0  0
  4 21  1  0  0  0
  5  6  1  0  0  0
  5 22  1  0  0  0
  5 23  1  0  0  0
  6  7  1  0  0  0
  6 24  1  0  0  0
  6 25  1  0  0  0
  7  8  1  0  0  0
  7 26  1  0  0  0
  7 27  1  0  0  0
  8  9  1  0  0  0
  8 28  1  0  0  0
  8 29  1  0  0  0
  9 10  1  0  0  0
  9 30  1  0  0  0
  9 31  1  0  0  0
 10 11  1  0  0  0
 10 12  1  0  0  0
 10 32  1  0  0  0
 11 33  1  0  0  0
 11 34  1  0  0  0
 11 35  1  0  0  0
 12 36  1  0  0  0
 12 37  1  0  0  0
 12 38  1  0  0  0
M  END
>  <i_m_Spin_multiplicity> (1)
1

>  <s_j_Task> (1)
Single Point

>  <s_j_QM_Method> (1)
DFT(b3lyp-d3)

>  <s_j_QM_Basis> (1)
cc-pvtz(-f)

>  <i_j_Number_of_canonical_orbitals> (1)
506

>  <i_j_Geometry_convergence_category> (1)
0

>  <r_j_Gas_Phase_Energy> (1)
-473.15876409409

>  <r_j_Final_Energy> (1)
-473.15876409409

>  <r_j_HOMO> (1)
-0.292569630933912

>  <r_j_LUMO> (1)
0.0282299292374855

>  <r_j_Polarizability> (1)
149.296841980613

>  <r_j_QM_Dipole_(debye)> (1)
0.149560534111852

>  <r_j_QM_Dipole_X_(debye)> (1)
-0.0780398926213262

>  <r_j_QM_Dipole_Y_(debye)> (1)
-0.117498831730688

>  <r_j_QM_Dipole_Z_(debye)> (1)
0.0497207508531169

>  <r_j_Lowest_Frequency_(cm-1)> (1)
47.0519768852756

>  <r_j_Highest_Frequency_(cm-1)> (1)
3054.69174136878

>  <r_j_2nd_Lowest_Frequency_(cm-1)> (1)
71.9348019632452

>  <i_j_Num_Negative_Frequencies> (1)
0

>  <r_j_Zero_Point_Energy_(kcal/mol)> (1)
225.457745266798

>  <r_j_Entropy_(cal/mol/K)_298.15K_1.00E+00atm> (1)
120.297022970562

>  <r_j_Enthalpy_(kcal/mol)_298.15K_1.00E+00atm> (1)
10.0591866543013

>  <r_j_Free_Energy_(kcal/mol)_298.15K_1.00E+00atm> (1)
-25.8073707443716

>  <r_j_Internal_Energy_(kcal/mol)_298.15K_1.00E+00atm> (1)
9.46670106547406

>  <r_j_Heat_Capacity_(cal/mol/K)_298.15K_1.00E+00atm> (1)
57.5728731141941

>  <r_j_ln(Q)_298.15K_1.00E+00atm> (1)
43.5578033137531

>  <r_j_Total_Internal_Energy_(au)_298.15K_1.00E+00atm> (1)
-472.784388156253

>  <r_j_Total_Enthalpy_(au)_298.15K_1.00E+00atm> (1)
-472.783443970361

>  <r_j_Total_Free_Energy_(au)_298.15K_1.00E+00atm> (1)
-472.840600968165

>  <r_lp_tautomer_probability> (1)
1

>  <r_epik_Ionization_Penalty> (1)
  0.0000

>  <r_epik_Ionization_Penalty_Charging> (1)
  0.0000

>  <r_epik_Ionization_Penalty_Neutral> (1)
  0.0000

>  <r_epik_State_Penalty> (1)
  0.0000

>  <r_epik_Charging_Adjusted_Penalty> (1)
0

>  <i_epik_Tot_Q> (1)
0

>  <i_epik_Tot_abs_Q> (1)
0

>  <s_lp_Force_Field> (1)
S-OPLS

>  <r_lp_Energy> (1)
5.876169

>  <b_lp_Chiralities_Consistent> (1)
1

$$$$
