2347_Butylbenzylphthalate
                    3D
 Schrodinger Suite 2021-3.
 43 44  0  0  1  0            999 V2000
   -0.7667    1.5642    3.0023 C   0  0  0  0  0  0
    0.3383    1.8664    1.9896 C   0  0  0  0  0  0
    0.0207    1.3210    0.5942 C   0  0  0  0  0  0
    1.1750    1.4702   -0.3889 C   0  0  0  0  0  0
    2.2848    0.5962   -0.0410 O   0  0  0  0  0  0
    2.1880   -0.6711   -0.4847 C   0  0  0  0  0  0
    1.2903   -1.0953   -1.1830 O   0  0  0  0  0  0
    3.4042   -1.4823   -0.1409 C   0  0  0  0  0  0
    4.0058   -2.1594   -1.2046 C   0  0  0  0  0  0
    5.1861   -2.8757   -1.0163 C   0  0  0  0  0  0
    5.7747   -2.9261    0.2468 C   0  0  0  0  0  0
    5.1687   -2.2776    1.3201 C   0  0  0  0  0  0
    3.9775   -1.5629    1.1414 C   0  0  0  0  0  0
    3.2591   -1.0165    2.3288 C   0  0  0  0  0  0
    2.0549   -0.8992    2.4162 O   0  0  0  0  0  0
    4.1218   -0.7105    3.3313 O   0  0  0  0  0  0
    3.5339   -0.1651    4.5288 C   0  0  0  0  0  0
    3.2180    1.3078    4.3914 C   0  0  0  0  0  0
    3.8985    2.1102    3.4713 C   0  0  0  0  0  0
    3.6030    3.4693    3.3702 C   0  0  0  0  0  0
    2.6342    4.0414    4.1951 C   0  0  0  0  0  0
    1.9567    3.2448    5.1197 C   0  0  0  0  0  0
    2.2442    1.8837    5.2126 C   0  0  0  0  0  0
   -0.5271    1.9912    3.9806 H   0  0  0  0  0  0
   -0.8854    0.4822    3.1285 H   0  0  0  0  0  0
   -1.7330    1.9723    2.6811 H   0  0  0  0  0  0
    0.5041    2.9507    1.9273 H   0  0  0  0  0  0
    1.2748    1.4270    2.3395 H   0  0  0  0  0  0
   -0.2452    0.2595    0.6485 H   0  0  0  0  0  0
   -0.8512    1.8406    0.1726 H   0  0  0  0  0  0
    0.8618    1.2404   -1.4103 H   0  0  0  0  0  0
    1.6056    2.4748   -0.3551 H   0  0  0  0  0  0
    3.5369   -2.1087   -2.1816 H   0  0  0  0  0  0
    5.6445   -3.3916   -1.8545 H   0  0  0  0  0  0
    6.6952   -3.4810    0.4007 H   0  0  0  0  0  0
    5.6013   -2.3373    2.3121 H   0  0  0  0  0  0
    2.6328   -0.7286    4.7854 H   0  0  0  0  0  0
    4.2929   -0.3352    5.2982 H   0  0  0  0  0  0
    4.6423    1.6625    2.8203 H   0  0  0  0  0  0
    4.1276    4.0806    2.6415 H   0  0  0  0  0  0
    2.4012    5.0989    4.1122 H   0  0  0  0  0  0
    1.1924    3.6795    5.7572 H   0  0  0  0  0  0
    1.6956    1.2621    5.9159 H   0  0  0  0  0  0
  1  2  1  0  0  0
  1 24  1  0  0  0
  1 25  1  0  0  0
  1 26  1  0  0  0
  2  3  1  0  0  0
  2 27  1  0  0  0
  2 28  1  0  0  0
  3  4  1  0  0  0
  3 29  1  0  0  0
  3 30  1  0  0  0
  4  5  1  0  0  0
  4 31  1  0  0  0
  4 32  1  0  0  0
  5  6  1  0  0  0
  6  7  2  0  0  0
  6  8  1  0  0  0
  8 13  1  0  0  0
  8  9  2  0  0  0
  9 10  1  0  0  0
  9 33  1  0  0  0
 10 11  2  0  0  0
 10 34  1  0  0  0
 11 12  1  0  0  0
 11 35  1  0  0  0
 12 13  2  0  0  0
 12 36  1  0  0  0
 13 14  1  0  0  0
 14 15  2  0  0  0
 14 16  1  0  0  0
 16 17  1  0  0  0
 17 18  1  0  0  0
 17 37  1  0  0  0
 17 38  1  0  0  0
 18 23  1  0  0  0
 18 19  2  0  0  0
 19 20  1  0  0  0
 19 39  1  0  0  0
 20 21  2  0  0  0
 20 40  1  0  0  0
 21 22  1  0  0  0
 21 41  1  0  0  0
 22 23  2  0  0  0
 22 42  1  0  0  0
 23 43  1  0  0  0
M  END
>  <i_m_Spin_multiplicity> (1)
1

>  <s_j_Task> (1)
Single Point

>  <s_j_QM_Method> (1)
DFT(b3lyp-d3)

>  <s_j_QM_Basis> (1)
cc-pvtz(-f)

>  <i_j_Number_of_canonical_orbitals> (1)
697

>  <i_j_Geometry_convergence_category> (1)
1

>  <r_j_Gas_Phase_Energy> (1)
-1037.37614526032

>  <r_j_Final_Energy> (1)
-1037.37614526032

>  <r_j_HOMO> (1)
-0.265152684134888

>  <r_j_LUMO> (1)
-0.0781887643801576

>  <r_j_Polarizability> (1)
223.705425705673

>  <r_j_QM_Dipole_(debye)> (1)
3.36357873741796

>  <r_j_QM_Dipole_X_(debye)> (1)
2.98270728991165

>  <r_j_QM_Dipole_Y_(debye)> (1)
0.823502392648251

>  <r_j_QM_Dipole_Z_(debye)> (1)
1.31869744627822

>  <r_j_Lowest_Frequency_(cm-1)> (1)
45.1269115660282

>  <r_j_Highest_Frequency_(cm-1)> (1)
3170.39782881309

>  <r_j_2nd_Lowest_Frequency_(cm-1)> (1)
52.1959850662444

>  <i_j_Num_Negative_Frequencies> (1)
0

>  <r_j_Zero_Point_Energy_(kcal/mol)> (1)
221.326221523043

>  <r_j_Entropy_(cal/mol/K)_298.15K_1.00E+00atm> (1)
142.257242917335

>  <r_j_Enthalpy_(kcal/mol)_298.15K_1.00E+00atm> (1)
13.0781499931266

>  <r_j_Free_Energy_(kcal/mol)_298.15K_1.00E+00atm> (1)
-29.3358469826769

>  <r_j_Internal_Energy_(kcal/mol)_298.15K_1.00E+00atm> (1)
12.4856644042994

>  <r_j_Heat_Capacity_(cal/mol/K)_298.15K_1.00E+00atm> (1)
79.0344703066351

>  <r_j_ln(Q)_298.15K_1.00E+00atm> (1)
49.5131823218558

>  <r_j_Total_Internal_Energy_(au)_298.15K_1.00E+00atm> (1)
-1037.00354230035

>  <r_j_Total_Enthalpy_(au)_298.15K_1.00E+00atm> (1)
-1037.00259811446

>  <r_j_Total_Free_Energy_(au)_298.15K_1.00E+00atm> (1)
-1037.07018912146

>  <r_lp_tautomer_probability> (1)
1

>  <r_epik_Ionization_Penalty> (1)
  0.0000

>  <r_epik_Ionization_Penalty_Charging> (1)
  0.0000

>  <r_epik_Ionization_Penalty_Neutral> (1)
  0.0000

>  <r_epik_State_Penalty> (1)
  0.0000

>  <r_epik_Charging_Adjusted_Penalty> (1)
0

>  <i_epik_Tot_Q> (1)
0

>  <i_epik_Tot_abs_Q> (1)
0

>  <s_lp_Force_Field> (1)
S-OPLS

>  <r_lp_Energy> (1)
26.913759

>  <b_lp_Chiralities_Consistent> (1)
1

>  <s_epik_Chemistry_Notes> (1)
This compound has an ester and may undergo hydrolysis at high or low pH.

$$$$
