23524_Heptacosanoic acid
                    3D
 Schrodinger Suite 2021-3.
 82 81  0  0  1  0            999 V2000
  -12.3632    9.0636   -0.1857 C   0  0  0  0  0  0
  -10.8429    8.8932   -0.2559 C   0  0  0  0  0  0
  -10.3886    7.4420   -0.0574 C   0  0  0  0  0  0
   -8.8674    7.2694   -0.1267 C   0  0  0  0  0  0
   -8.3990    5.8226    0.0674 C   0  0  0  0  0  0
   -6.8755    5.6717   -0.0043 C   0  0  0  0  0  0
   -6.3828    4.2320    0.1819 C   0  0  0  0  0  0
   -4.8568    4.1103    0.1058 C   0  0  0  0  0  0
   -4.3339    2.6800    0.2811 C   0  0  0  0  0  0
   -2.8059    2.5925    0.1990 C   0  0  0  0  0  0
   -2.2496    1.1733    0.3610 C   0  0  0  0  0  0
   -0.7202    1.1228    0.2692 C   0  0  0  0  0  0
   -0.1368   -0.2884    0.4199 C   0  0  0  0  0  0
    1.3883   -0.3541    0.2378 C   0  0  0  0  0  0
    2.1859    0.3469    1.3481 C   0  0  0  0  0  0
    3.7108    0.2841    1.1656 C   0  0  0  0  0  0
    4.2349    1.0939   -0.0285 C   0  0  0  0  0  0
    5.7644    1.1138   -0.1275 C   0  0  0  0  0  0
    6.2869    1.9353   -1.3119 C   0  0  0  0  0  0
    7.8163    1.9707   -1.4039 C   0  0  0  0  0  0
    8.3449    2.8024   -2.5783 C   0  0  0  0  0  0
    9.8753    2.8389   -2.6577 C   0  0  0  0  0  0
   10.4208    3.6773   -3.8195 C   0  0  0  0  0  0
   11.9530    3.7091   -3.8855 C   0  0  0  0  0  0
   12.5118    4.5535   -5.0366 C   0  0  0  0  0  0
   14.0379    4.5853   -5.1024 C   0  0  0  0  0  0
   14.6259    5.4322   -6.2980 C   0  0  0  0  0  0
   15.8777    5.5171   -6.3044 O   0  0  0  0  0  0
   13.7784    5.9100   -7.0959 O   0  5  0  0  0  0
  -12.6592   10.1078   -0.3311 H   0  0  0  0  0  0
  -12.7517    8.7389    0.7866 H   0  0  0  0  0  0
  -12.8628    8.4647   -0.9560 H   0  0  0  0  0  0
  -10.4764    9.2562   -1.2259 H   0  0  0  0  0  0
  -10.3660    9.5275    0.5038 H   0  0  0  0  0  0
  -10.7541    7.0764    0.9131 H   0  0  0  0  0  0
  -10.8636    6.8055   -0.8180 H   0  0  0  0  0  0
   -8.5049    7.6397   -1.0964 H   0  0  0  0  0  0
   -8.3955    7.9076    0.6342 H   0  0  0  0  0  0
   -8.7582    5.4493    1.0372 H   0  0  0  0  0  0
   -8.8658    5.1825   -0.6949 H   0  0  0  0  0  0
   -6.5199    6.0523   -0.9726 H   0  0  0  0  0  0
   -6.4123    6.3137    0.7587 H   0  0  0  0  0  0
   -6.7330    3.8477    1.1507 H   0  0  0  0  0  0
   -6.8398    3.5876   -0.5828 H   0  0  0  0  0  0
   -4.5113    4.5043   -0.8608 H   0  0  0  0  0  0
   -4.4044    4.7565    0.8718 H   0  0  0  0  0  0
   -4.6726    2.2818    1.2484 H   0  0  0  0  0  0
   -4.7796    2.0311   -0.4865 H   0  0  0  0  0  0
   -2.4728    3.0016   -0.7657 H   0  0  0  0  0  0
   -2.3653    3.2429    0.9682 H   0  0  0  0  0  0
   -2.5729    0.7609    1.3277 H   0  0  0  0  0  0
   -2.6853    0.5195   -0.4083 H   0  0  0  0  0  0
   -0.4026    1.5396   -0.6976 H   0  0  0  0  0  0
   -0.2981    1.7856    1.0355 H   0  0  0  0  0  0
   -0.4075   -0.6923    1.4064 H   0  0  0  0  0  0
   -0.6136   -0.9472   -0.3188 H   0  0  0  0  0  0
    1.7025   -1.4059    0.1936 H   0  0  0  0  0  0
    1.6446    0.0798   -0.7373 H   0  0  0  0  0  0
    1.8857    1.4008    1.4164 H   0  0  0  0  0  0
    1.9160   -0.1085    2.3112 H   0  0  0  0  0  0
    4.1925    0.6566    2.0799 H   0  0  0  0  0  0
    4.0264   -0.7643    1.0633 H   0  0  0  0  0  0
    3.8229    0.6943   -0.9644 H   0  0  0  0  0  0
    3.8640    2.1266    0.0482 H   0  0  0  0  0  0
    6.1837    1.5160    0.8061 H   0  0  0  0  0  0
    6.1383    0.0827   -0.2058 H   0  0  0  0  0  0
    5.8747    1.5289   -2.2469 H   0  0  0  0  0  0
    5.9040    2.9634   -1.2363 H   0  0  0  0  0  0
    8.2259    2.3700   -0.4646 H   0  0  0  0  0  0
    8.1990    0.9428   -1.4851 H   0  0  0  0  0  0
    7.9398    2.4027   -3.5194 H   0  0  0  0  0  0
    7.9601    3.8295   -2.4978 H   0  0  0  0  0  0
   10.2758    3.2297   -1.7106 H   0  0  0  0  0  0
   10.2571    1.8106   -2.7418 H   0  0  0  0  0  0
   10.0240    3.2876   -4.7684 H   0  0  0  0  0  0
   10.0397    4.7057   -3.7357 H   0  0  0  0  0  0
   12.3438    4.0878   -2.9281 H   0  0  0  0  0  0
   12.3289    2.6775   -3.9703 H   0  0  0  0  0  0
   12.1291    4.1882   -5.9978 H   0  0  0  0  0  0
   12.1396    5.5836   -4.9611 H   0  0  0  0  0  0
   14.4574    4.9839   -4.1664 H   0  0  0  0  0  0
   14.4373    3.5626   -5.1877 H   0  0  0  0  0  0
  1  2  1  0  0  0
  1 30  1  0  0  0
  1 31  1  0  0  0
  1 32  1  0  0  0
  2  3  1  0  0  0
  2 33  1  0  0  0
  2 34  1  0  0  0
  3  4  1  0  0  0
  3 35  1  0  0  0
  3 36  1  0  0  0
  4  5  1  0  0  0
  4 37  1  0  0  0
  4 38  1  0  0  0
  5  6  1  0  0  0
  5 39  1  0  0  0
  5 40  1  0  0  0
  6  7  1  0  0  0
  6 41  1  0  0  0
  6 42  1  0  0  0
  7  8  1  0  0  0
  7 43  1  0  0  0
  7 44  1  0  0  0
  8  9  1  0  0  0
  8 45  1  0  0  0
  8 46  1  0  0  0
  9 10  1  0  0  0
  9 47  1  0  0  0
  9 48  1  0  0  0
 10 11  1  0  0  0
 10 49  1  0  0  0
 10 50  1  0  0  0
 11 12  1  0  0  0
 11 51  1  0  0  0
 11 52  1  0  0  0
 12 13  1  0  0  0
 12 53  1  0  0  0
 12 54  1  0  0  0
 13 14  1  0  0  0
 13 55  1  0  0  0
 13 56  1  0  0  0
 14 15  1  0  0  0
 14 57  1  0  0  0
 14 58  1  0  0  0
 15 16  1  0  0  0
 15 59  1  0  0  0
 15 60  1  0  0  0
 16 17  1  0  0  0
 16 61  1  0  0  0
 16 62  1  0  0  0
 17 18  1  0  0  0
 17 63  1  0  0  0
 17 64  1  0  0  0
 18 19  1  0  0  0
 18 65  1  0  0  0
 18 66  1  0  0  0
 19 20  1  0  0  0
 19 67  1  0  0  0
 19 68  1  0  0  0
 20 21  1  0  0  0
 20 69  1  0  0  0
 20 70  1  0  0  0
 21 22  1  0  0  0
 21 71  1  0  0  0
 21 72  1  0  0  0
 22 23  1  0  0  0
 22 73  1  0  0  0
 22 74  1  0  0  0
 23 24  1  0  0  0
 23 75  1  0  0  0
 23 76  1  0  0  0
 24 25  1  0  0  0
 24 77  1  0  0  0
 24 78  1  0  0  0
 25 26  1  0  0  0
 25 79  1  0  0  0
 25 80  1  0  0  0
 26 27  1  0  0  0
 26 81  1  0  0  0
 26 82  1  0  0  0
 27 28  2  0  0  0
 27 29  1  0  0  0
M  END
>  <s_lp_Force_Field> (1)
S-OPLS

>  <r_lp_Energy> (1)
17.287762

>  <b_lp_Chiralities_Consistent> (1)
1

>  <r_epik_Ionization_Penalty> (1)
  0.0049

>  <r_epik_Ionization_Penalty_Charging> (1)
  0.0049

>  <r_epik_Ionization_Penalty_Neutral> (1)
  0.0000

>  <r_epik_State_Penalty> (1)
  0.0035

>  <r_epik_Charging_Adjusted_Penalty> (1)
0.00839777765143097

>  <i_epik_Tot_Q> (1)
-1

>  <i_epik_Tot_abs_Q> (1)
1

>  <i_m_Spin_multiplicity> (1)
1

>  <s_j_Task> (1)
Single Point

>  <s_j_QM_Method> (1)
DFT(b3lyp-d3)

>  <s_j_QM_Basis> (1)
6-31g**

>  <i_j_Number_of_canonical_orbitals> (1)
700

>  <i_j_Geometry_convergence_category> (1)
0

>  <r_j_Gas_Phase_Energy> (1)
-1211.49020643409

>  <r_j_Final_Energy> (1)
-1211.49020643409

>  <r_j_HOMO> (1)
-0.00397359619191207

>  <r_j_LUMO> (1)
0.11337399448169

>  <r_j_Polarizability> (1)
307.612915060297

>  <r_j_QM_Dipole_(debye)> (1)
63.3435383391508

>  <r_j_QM_Dipole_X_(debye)> (1)
-58.1745361249849

>  <r_j_QM_Dipole_Y_(debye)> (1)
-8.78616433515799

>  <r_j_QM_Dipole_Z_(debye)> (1)
23.4719090029314

>  <r_j_Lowest_Frequency_(cm-1)> (1)
-15.8145183279986

>  <r_j_Highest_Frequency_(cm-1)> (1)
3106.70526457619

>  <r_j_2nd_Lowest_Frequency_(cm-1)> (1)
-13.044486248412

>  <i_j_Num_Negative_Frequencies> (1)
2

>  <r_j_Zero_Point_Energy_(kcal/mol)> (1)
479.842607656166

>  <r_j_Entropy_(cal/mol/K)_298.15K_1.00E+00atm> (1)
209.929320503763

>  <r_j_Enthalpy_(kcal/mol)_298.15K_1.00E+00atm> (1)
22.0262533430846

>  <r_j_Free_Energy_(kcal/mol)_298.15K_1.00E+00atm> (1)
-40.5641735651123

>  <r_j_Internal_Energy_(kcal/mol)_298.15K_1.00E+00atm> (1)
21.4337677542573

>  <r_j_Heat_Capacity_(cal/mol/K)_298.15K_1.00E+00atm> (1)
128.718606999297

>  <r_j_ln(Q)_298.15K_1.00E+00atm> (1)
68.4644054303536

>  <r_j_Total_Internal_Energy_(au)_298.15K_1.00E+00atm> (1)
-1210.69137167641

>  <r_j_Total_Enthalpy_(au)_298.15K_1.00E+00atm> (1)
-1210.69042749052

>  <r_j_Total_Free_Energy_(au)_298.15K_1.00E+00atm> (1)
-1210.79017168547

$$$$
