23531_2,3-dimethyloctane
                    3D
 Schrodinger Suite 2021-3.
 32 31  0  0  1  0            999 V2000
   -4.2105    2.8982    0.1264 C   0  0  0  0  0  0
   -2.6862    2.8981   -0.0221 C   0  0  0  0  0  0
   -2.0788    1.4911    0.0202 C   0  0  0  0  0  0
   -0.5521    1.4833   -0.1220 C   0  0  0  0  0  0
    0.0389    0.0669   -0.1110 C   0  0  0  0  0  0
    1.5803   -0.0079   -0.0529 C   0  0  0  0  0  0
    2.2112    0.7504   -1.2330 C   0  0  0  0  0  0
    2.0823   -1.4778    0.0203 C   0  0  0  0  0  0
    1.5065   -2.2359    1.2289 C   0  0  0  0  0  0
    3.6177   -1.5689    0.0590 C   0  0  0  0  0  0
   -4.6193    3.9134    0.0912 H   0  0  0  0  0  0
   -4.5135    2.4491    1.0793 H   0  0  0  0  0  0
   -4.6841    2.3195   -0.6752 H   0  0  0  0  0  0
   -2.4084    3.3828   -0.9681 H   0  0  0  0  0  0
   -2.2383    3.5086    0.7740 H   0  0  0  0  0  0
   -2.3613    1.0018    0.9636 H   0  0  0  0  0  0
   -2.5218    0.8809   -0.7803 H   0  0  0  0  0  0
   -0.2836    2.0033   -1.0498 H   0  0  0  0  0  0
   -0.1084    2.0695    0.6960 H   0  0  0  0  0  0
   -0.3809   -0.4599    0.7531 H   0  0  0  0  0  0
   -0.3119   -0.4789   -1.0000 H   0  0  0  0  0  0
    1.9016    0.4889    0.8776 H   0  0  0  0  0  0
    1.9490    0.2710   -2.1847 H   0  0  0  0  0  0
    3.3009    0.7843   -1.1640 H   0  0  0  0  0  0
    1.8633    1.7855   -1.2757 H   0  0  0  0  0  0
    1.7379   -1.9857   -0.8945 H   0  0  0  0  0  0
    1.7505   -1.7157    2.1638 H   0  0  0  0  0  0
    1.9324   -3.2428    1.2913 H   0  0  0  0  0  0
    0.4205   -2.3454    1.1804 H   0  0  0  0  0  0
    4.0195   -0.9934    0.9025 H   0  0  0  0  0  0
    4.0840   -1.1934   -0.8551 H   0  0  0  0  0  0
    3.9396   -2.6079    0.1857 H   0  0  0  0  0  0
  1  2  1  0  0  0
  1 11  1  0  0  0
  1 12  1  0  0  0
  1 13  1  0  0  0
  2  3  1  0  0  0
  2 14  1  0  0  0
  2 15  1  0  0  0
  3  4  1  0  0  0
  3 16  1  0  0  0
  3 17  1  0  0  0
  4  5  1  0  0  0
  4 18  1  0  0  0
  4 19  1  0  0  0
  5  6  1  0  0  0
  5 20  1  0  0  0
  5 21  1  0  0  0
  6  7  1  0  0  0
  6  8  1  0  0  0
  6 22  1  0  0  0
  7 23  1  0  0  0
  7 24  1  0  0  0
  7 25  1  0  0  0
  8  9  1  0  0  0
  8 10  1  0  0  0
  8 26  1  0  0  0
  9 27  1  0  0  0
  9 28  1  0  0  0
  9 29  1  0  0  0
 10 30  1  0  0  0
 10 31  1  0  0  0
 10 32  1  0  0  0
M  END
>  <i_m_Spin_multiplicity> (1)
1

>  <s_j_Task> (1)
Single Point

>  <s_j_QM_Method> (1)
DFT(b3lyp-d3)

>  <s_j_QM_Basis> (1)
cc-pvtz(-f)

>  <i_j_Number_of_canonical_orbitals> (1)
425

>  <i_j_Geometry_convergence_category> (1)
0

>  <r_j_Gas_Phase_Energy> (1)
-394.497804915982

>  <r_j_Final_Energy> (1)
-394.497804915982

>  <r_j_HOMO> (1)
-0.294549795521188

>  <r_j_LUMO> (1)
0.0260269480731421

>  <r_j_Polarizability> (1)
124.083182866281

>  <r_j_QM_Dipole_(debye)> (1)
0.0318796133411759

>  <r_j_QM_Dipole_X_(debye)> (1)
-0.00806627335566576

>  <r_j_QM_Dipole_Y_(debye)> (1)
0.0230913592212999

>  <r_j_QM_Dipole_Z_(debye)> (1)
-0.0204458824766123

>  <r_j_Lowest_Frequency_(cm-1)> (1)
71.0391598417229

>  <r_j_Highest_Frequency_(cm-1)> (1)
3073.79487628161

>  <r_j_2nd_Lowest_Frequency_(cm-1)> (1)
87.8382207019378

>  <i_j_Num_Negative_Frequencies> (1)
0

>  <r_j_Zero_Point_Energy_(kcal/mol)> (1)
189.454462390446

>  <r_j_Entropy_(cal/mol/K)_298.15K_1.00E+00atm> (1)
108.317925928521

>  <r_j_Enthalpy_(kcal/mol)_298.15K_1.00E+00atm> (1)
8.57880875569886

>  <r_j_Free_Energy_(kcal/mol)_298.15K_1.00E+00atm> (1)
-23.7161808598896

>  <r_j_Internal_Energy_(kcal/mol)_298.15K_1.00E+00atm> (1)
7.98632316687158

>  <r_j_Heat_Capacity_(cal/mol/K)_298.15K_1.00E+00atm> (1)
48.7465740219181

>  <r_j_ln(Q)_298.15K_1.00E+00atm> (1)
40.0282830622628

>  <r_j_Total_Internal_Energy_(au)_298.15K_1.00E+00atm> (1)
-394.183162994232

>  <r_j_Total_Enthalpy_(au)_298.15K_1.00E+00atm> (1)
-394.18221880834

>  <r_j_Total_Free_Energy_(au)_298.15K_1.00E+00atm> (1)
-394.233684150553

>  <r_lp_tautomer_probability> (1)
1

>  <r_epik_Ionization_Penalty> (1)
  0.0000

>  <r_epik_Ionization_Penalty_Charging> (1)
  0.0000

>  <r_epik_Ionization_Penalty_Neutral> (1)
  0.0000

>  <r_epik_State_Penalty> (1)
  0.0000

>  <r_epik_Charging_Adjusted_Penalty> (1)
0

>  <i_epik_Tot_Q> (1)
0

>  <i_epik_Tot_abs_Q> (1)
0

>  <s_lp_Force_Field> (1)
S-OPLS

>  <r_lp_Energy> (1)
7.30249

>  <b_lp_Chiralities_Consistent> (1)
1

$$$$
