23598_Heptatriacontane
                    3D
 Schrodinger Suite 2021-3.
113112  0  0  1  0            999 V2000
    4.9798   11.7561  -10.9197 C   0  0  0  0  0  0
    3.5755   11.8967  -10.3243 C   0  0  0  0  0  0
    3.2271   13.3463   -9.9575 C   0  0  0  0  0  0
    1.7938   13.5440   -9.4391 C   0  0  0  0  0  0
    1.5057   12.8665   -8.0925 C   0  0  0  0  0  0
    0.0642   13.0821   -7.6123 C   0  0  0  0  0  0
   -0.2413   12.4929   -6.2263 C   0  0  0  0  0  0
   -0.0592   10.9718   -6.1313 C   0  0  0  0  0  0
   -0.5299   10.3834   -4.7957 C   0  0  0  0  0  0
   -0.2602    8.8791   -4.6748 C   0  0  0  0  0  0
   -0.7873    8.2565   -3.3766 C   0  0  0  0  0  0
   -0.4405    6.7691   -3.2419 C   0  0  0  0  0  0
   -1.0194    6.1068   -1.9861 C   0  0  0  0  0  0
   -0.6004    4.6395   -1.8371 C   0  0  0  0  0  0
   -1.2273    3.9323   -0.6299 C   0  0  0  0  0  0
   -0.7415    2.4872   -0.4667 C   0  0  0  0  0  0
   -1.4211    1.7325    0.6839 C   0  0  0  0  0  0
   -0.9119    0.2924    0.8639 C   0  0  0  0  0  0
    0.4912    0.1987    1.4850 C   0  0  0  0  0  0
    1.0700   -1.2260    1.5120 C   0  0  0  0  0  0
    1.5273   -1.7327    0.1372 C   0  0  0  0  0  0
    2.0808   -3.1624    0.1592 C   0  0  0  0  0  0
    2.6005   -3.6238   -1.2078 C   0  0  0  0  0  0
    3.0934   -5.0755   -1.2265 C   0  0  0  0  0  0
    3.6420   -5.4991   -2.5958 C   0  0  0  0  0  0
    4.1385   -6.9514   -2.6704 C   0  0  0  0  0  0
    3.0373   -8.0045   -2.4849 C   0  0  0  0  0  0
    3.5167   -9.4380   -2.7430 C   0  0  0  0  0  0
    2.4125  -10.4839   -2.5354 C   0  0  0  0  0  0
    2.7989  -11.9123   -2.9475 C   0  0  0  0  0  0
    3.9365  -12.5340   -2.1264 C   0  0  0  0  0  0
    4.2284  -13.9860   -2.5228 C   0  0  0  0  0  0
    5.3640  -14.6313   -1.7204 C   0  0  0  0  0  0
    5.6387  -16.0831   -2.1298 C   0  0  0  0  0  0
    6.7698  -16.7459   -1.3359 C   0  0  0  0  0  0
    7.0329  -18.1976   -1.7542 C   0  0  0  0  0  0
    8.1625  -18.8584   -0.9585 C   0  0  0  0  0  0
    5.2079   10.7154  -11.1730 H   0  0  0  0  0  0
    5.7435   12.1021  -10.2134 H   0  0  0  0  0  0
    5.0830   12.3526  -11.8336 H   0  0  0  0  0  0
    2.8321   11.5194  -11.0403 H   0  0  0  0  0  0
    3.4947   11.2569   -9.4369 H   0  0  0  0  0  0
    3.9411   13.7106   -9.2046 H   0  0  0  0  0  0
    3.3750   13.9776  -10.8445 H   0  0  0  0  0  0
    1.5918   14.6196   -9.3446 H   0  0  0  0  0  0
    1.0843   13.1683  -10.1909 H   0  0  0  0  0  0
    1.7050   11.7918   -8.1730 H   0  0  0  0  0  0
    2.2052   13.2512   -7.3354 H   0  0  0  0  0  0
   -0.1500   14.1595   -7.5968 H   0  0  0  0  0  0
   -0.6264   12.6466   -8.3489 H   0  0  0  0  0  0
    0.3970   12.9792   -5.4745 H   0  0  0  0  0  0
   -1.2754   12.7455   -5.9546 H   0  0  0  0  0  0
   -0.6077   10.4880   -6.9529 H   0  0  0  0  0  0
    0.9976   10.7144   -6.2806 H   0  0  0  0  0  0
   -0.0318   10.9091   -3.9683 H   0  0  0  0  0  0
   -1.6053   10.5755   -4.6721 H   0  0  0  0  0  0
   -0.7107    8.3589   -5.5324 H   0  0  0  0  0  0
    0.8222    8.7006   -4.7498 H   0  0  0  0  0  0
   -0.3799    8.8043   -2.5148 H   0  0  0  0  0  0
   -1.8782    8.3850   -3.3287 H   0  0  0  0  0  0
   -0.7999    6.2305   -4.1306 H   0  0  0  0  0  0
    0.6531    6.6534   -3.2424 H   0  0  0  0  0  0
   -0.7027    6.6680   -1.0953 H   0  0  0  0  0  0
   -2.1165    6.1744   -2.0125 H   0  0  0  0  0  0
   -0.8668    4.0914   -2.7525 H   0  0  0  0  0  0
    0.4953    4.5842   -1.7622 H   0  0  0  0  0  0
   -1.0019    4.4979    0.2856 H   0  0  0  0  0  0
   -2.3221    3.9428   -0.7307 H   0  0  0  0  0  0
   -0.9160    1.9377   -1.4032 H   0  0  0  0  0  0
    0.3469    2.4942   -0.3210 H   0  0  0  0  0  0
   -1.2839    2.2897    1.6221 H   0  0  0  0  0  0
   -2.5035    1.7138    0.4987 H   0  0  0  0  0  0
   -1.6098   -0.2670    1.5012 H   0  0  0  0  0  0
   -0.9267   -0.2103   -0.1124 H   0  0  0  0  0  0
    1.1884    0.8510    0.9423 H   0  0  0  0  0  0
    0.4428    0.5945    2.5082 H   0  0  0  0  0  0
    1.9265   -1.2563    2.1988 H   0  0  0  0  0  0
    0.3228   -1.9169    1.9291 H   0  0  0  0  0  0
    0.6943   -1.6864   -0.5767 H   0  0  0  0  0  0
    2.2968   -1.0513   -0.2541 H   0  0  0  0  0  0
    2.8912   -3.2317    0.8991 H   0  0  0  0  0  0
    1.2960   -3.8507    0.5045 H   0  0  0  0  0  0
    1.8038   -3.5060   -1.9566 H   0  0  0  0  0  0
    3.4145   -2.9575   -1.5280 H   0  0  0  0  0  0
    3.8757   -5.2093   -0.4652 H   0  0  0  0  0  0
    2.2667   -5.7351   -0.9320 H   0  0  0  0  0  0
    2.8631   -5.3482   -3.3575 H   0  0  0  0  0  0
    4.4652   -4.8249   -2.8687 H   0  0  0  0  0  0
    4.6168   -7.1102   -3.6466 H   0  0  0  0  0  0
    4.9250   -7.1101   -1.9185 H   0  0  0  0  0  0
    2.6256   -7.9419   -1.4690 H   0  0  0  0  0  0
    2.2030   -7.7761   -3.1644 H   0  0  0  0  0  0
    3.8978   -9.5130   -3.7721 H   0  0  0  0  0  0
    4.3698   -9.6567   -2.0872 H   0  0  0  0  0  0
    2.1036  -10.4795   -1.4801 H   0  0  0  0  0  0
    1.5273  -10.1795   -3.1105 H   0  0  0  0  0  0
    1.9129  -12.5567   -2.8656 H   0  0  0  0  0  0
    3.0787  -11.9173   -4.0111 H   0  0  0  0  0  0
    4.8521  -11.9393   -2.2429 H   0  0  0  0  0  0
    3.6791  -12.4908   -1.0580 H   0  0  0  0  0  0
    3.3143  -14.5852   -2.4021 H   0  0  0  0  0  0
    4.4746  -14.0256   -3.5938 H   0  0  0  0  0  0
    6.2813  -14.0376   -1.8431 H   0  0  0  0  0  0
    5.1206  -14.5942   -0.6489 H   0  0  0  0  0  0
    4.7184  -16.6729   -2.0098 H   0  0  0  0  0  0
    5.8805  -16.1171   -3.2019 H   0  0  0  0  0  0
    7.6927  -16.1602   -1.4561 H   0  0  0  0  0  0
    6.5300  -16.7147   -0.2631 H   0  0  0  0  0  0
    6.1092  -18.7803   -1.6347 H   0  0  0  0  0  0
    7.2722  -18.2264   -2.8261 H   0  0  0  0  0  0
    8.3283  -19.8929   -1.2773 H   0  0  0  0  0  0
    7.9338  -18.8722    0.1135 H   0  0  0  0  0  0
    9.1056  -18.3145   -1.0868 H   0  0  0  0  0  0
  1  2  1  0  0  0
  1 38  1  0  0  0
  1 39  1  0  0  0
  1 40  1  0  0  0
  2  3  1  0  0  0
  2 41  1  0  0  0
  2 42  1  0  0  0
  3  4  1  0  0  0
  3 43  1  0  0  0
  3 44  1  0  0  0
  4  5  1  0  0  0
  4 45  1  0  0  0
  4 46  1  0  0  0
  5  6  1  0  0  0
  5 47  1  0  0  0
  5 48  1  0  0  0
  6  7  1  0  0  0
  6 49  1  0  0  0
  6 50  1  0  0  0
  7  8  1  0  0  0
  7 51  1  0  0  0
  7 52  1  0  0  0
  8  9  1  0  0  0
  8 53  1  0  0  0
  8 54  1  0  0  0
  9 10  1  0  0  0
  9 55  1  0  0  0
  9 56  1  0  0  0
 10 11  1  0  0  0
 10 57  1  0  0  0
 10 58  1  0  0  0
 11 12  1  0  0  0
 11 59  1  0  0  0
 11 60  1  0  0  0
 12 13  1  0  0  0
 12 61  1  0  0  0
 12 62  1  0  0  0
 13 14  1  0  0  0
 13 63  1  0  0  0
 13 64  1  0  0  0
 14 15  1  0  0  0
 14 65  1  0  0  0
 14 66  1  0  0  0
 15 16  1  0  0  0
 15 67  1  0  0  0
 15 68  1  0  0  0
 16 17  1  0  0  0
 16 69  1  0  0  0
 16 70  1  0  0  0
 17 18  1  0  0  0
 17 71  1  0  0  0
 17 72  1  0  0  0
 18 19  1  0  0  0
 18 73  1  0  0  0
 18 74  1  0  0  0
 19 20  1  0  0  0
 19 75  1  0  0  0
 19 76  1  0  0  0
 20 21  1  0  0  0
 20 77  1  0  0  0
 20 78  1  0  0  0
 21 22  1  0  0  0
 21 79  1  0  0  0
 21 80  1  0  0  0
 22 23  1  0  0  0
 22 81  1  0  0  0
 22 82  1  0  0  0
 23 24  1  0  0  0
 23 83  1  0  0  0
 23 84  1  0  0  0
 24 25  1  0  0  0
 24 85  1  0  0  0
 24 86  1  0  0  0
 25 26  1  0  0  0
 25 87  1  0  0  0
 25 88  1  0  0  0
 26 27  1  0  0  0
 26 89  1  0  0  0
 26 90  1  0  0  0
 27 28  1  0  0  0
 27 91  1  0  0  0
 27 92  1  0  0  0
 28 29  1  0  0  0
 28 93  1  0  0  0
 28 94  1  0  0  0
 29 30  1  0  0  0
 29 95  1  0  0  0
 29 96  1  0  0  0
 30 31  1  0  0  0
 30 97  1  0  0  0
 30 98  1  0  0  0
 31 32  1  0  0  0
 31 99  1  0  0  0
 31100  1  0  0  0
 32 33  1  0  0  0
 32101  1  0  0  0
 32102  1  0  0  0
 33 34  1  0  0  0
 33103  1  0  0  0
 33104  1  0  0  0
 34 35  1  0  0  0
 34105  1  0  0  0
 34106  1  0  0  0
 35 36  1  0  0  0
 35107  1  0  0  0
 35108  1  0  0  0
 36 37  1  0  0  0
 36109  1  0  0  0
 36110  1  0  0  0
 37111  1  0  0  0
 37112  1  0  0  0
 37113  1  0  0  0
M  END
>  <i_m_Spin_multiplicity> (1)
1

>  <s_j_Task> (1)
Single Point

>  <s_j_QM_Method> (1)
DFT(b3lyp-d3)

>  <s_j_QM_Basis> (1)
cc-pvtz(-f)

>  <i_j_Number_of_canonical_orbitals> (1)
1523

>  <i_j_Geometry_convergence_category> (1)
4

>  <r_j_Gas_Phase_Energy> (1)
-1456.38867325803

>  <r_j_Final_Energy> (1)
-1456.38867325803

>  <r_j_HOMO> (1)
-0.18758956760424

>  <r_j_LUMO> (1)
-0.0547322420168445

>  <r_j_Polarizability> (1)
462.134395122693

>  <r_j_QM_Dipole_(debye)> (1)
0.101430657822257

>  <r_j_QM_Dipole_X_(debye)> (1)
-0.101187919285956

>  <r_j_QM_Dipole_Y_(debye)> (1)
-0.00511664346870612

>  <r_j_QM_Dipole_Z_(debye)> (1)
0.00479617518953695

>  <r_j_Lowest_Frequency_(cm-1)> (1)
11.8925541066046

>  <r_j_Highest_Frequency_(cm-1)> (1)
3045.10665309048

>  <r_j_2nd_Lowest_Frequency_(cm-1)> (1)
17.7362280906164

>  <i_j_Num_Negative_Frequencies> (1)
0

>  <r_j_Zero_Point_Energy_(kcal/mol)> (1)
672.732702077389

>  <r_j_Entropy_(cal/mol/K)_298.15K_1.00E+00atm> (1)
252.878178205734

>  <r_j_Enthalpy_(kcal/mol)_298.15K_1.00E+00atm> (1)
29.0092872441428

>  <r_j_Free_Energy_(kcal/mol)_298.15K_1.00E+00atm> (1)
-46.3863415878966

>  <r_j_Internal_Energy_(kcal/mol)_298.15K_1.00E+00atm> (1)
28.4168016553156

>  <r_j_Heat_Capacity_(cal/mol/K)_298.15K_1.00E+00atm> (1)
175.505536427417

>  <r_j_ln(Q)_298.15K_1.00E+00atm> (1)
78.2910883616775

>  <r_j_Total_Internal_Energy_(au)_298.15K_1.00E+00atm> (1)
-1455.27132039364

>  <r_j_Total_Enthalpy_(au)_298.15K_1.00E+00atm> (1)
-1455.27037620775

>  <r_j_Total_Free_Energy_(au)_298.15K_1.00E+00atm> (1)
-1455.39052679103

>  <r_lp_tautomer_probability> (1)
1

>  <r_epik_Ionization_Penalty> (1)
  0.0000

>  <r_epik_Ionization_Penalty_Charging> (1)
  0.0000

>  <r_epik_Ionization_Penalty_Neutral> (1)
  0.0000

>  <r_epik_State_Penalty> (1)
  0.0000

>  <r_epik_Charging_Adjusted_Penalty> (1)
0

>  <i_epik_Tot_Q> (1)
0

>  <i_epik_Tot_abs_Q> (1)
0

>  <s_lp_Force_Field> (1)
S-OPLS

>  <r_lp_Energy> (1)
21.138728

>  <b_lp_Chiralities_Consistent> (1)
1

$$$$
