23599_Octatriacontane
                    3D
 Schrodinger Suite 2021-3.
116115  0  0  1  0            999 V2000
   -7.5927    6.6153   14.0595 C   0  0  0  0  0  0
   -7.7740    5.8132   12.7675 C   0  0  0  0  0  0
   -7.3018    6.5675   11.5182 C   0  0  0  0  0  0
   -7.4787    5.7573   10.2272 C   0  0  0  0  0  0
   -7.0960    6.5049    8.9409 C   0  0  0  0  0  0
   -5.6123    6.8857    8.8399 C   0  0  0  0  0  0
   -5.2388    7.4779    7.4759 C   0  0  0  0  0  0
   -3.7614    7.8708    7.3585 C   0  0  0  0  0  0
   -3.3805    8.3759    5.9618 C   0  0  0  0  0  0
   -1.8985    8.7497    5.8341 C   0  0  0  0  0  0
   -1.4920    9.2707    4.4439 C   0  0  0  0  0  0
   -1.7743    8.3133    3.2720 C   0  0  0  0  0  0
   -1.1165    6.9342    3.4082 C   0  0  0  0  0  0
   -1.3787    6.0157    2.2087 C   0  0  0  0  0  0
   -0.7300    4.6335    2.3505 C   0  0  0  0  0  0
   -1.0231    3.6940    1.1748 C   0  0  0  0  0  0
   -0.3511    2.3222    1.3112 C   0  0  0  0  0  0
   -0.6602    1.3778    0.1414 C   0  0  0  0  0  0
   -0.0401   -0.0231    0.2697 C   0  0  0  0  0  0
    1.4943   -0.0423    0.2277 C   0  0  0  0  0  0
    2.0807   -1.4605    0.2645 C   0  0  0  0  0  0
    3.6132   -1.5150    0.1530 C   0  0  0  0  0  0
    4.3587   -0.8995    1.3449 C   0  0  0  0  0  0
    5.8848   -0.9855    1.2186 C   0  0  0  0  0  0
    6.6237   -0.3841    2.4199 C   0  0  0  0  0  0
    8.1510   -0.4133    2.2851 C   0  0  0  0  0  0
    8.8733    0.1659    3.5073 C   0  0  0  0  0  0
   10.4008    0.1885    3.3733 C   0  0  0  0  0  0
   11.1037    0.7347    4.6218 C   0  0  0  0  0  0
   12.6308    0.8016    4.4979 C   0  0  0  0  0  0
   13.3131    1.3025    5.7765 C   0  0  0  0  0  0
   14.8396    1.4036    5.6693 C   0  0  0  0  0  0
   15.4979    1.8516    6.9817 C   0  0  0  0  0  0
   17.0325    1.9215    6.9434 C   0  0  0  0  0  0
   17.5996    3.0214    6.0350 C   0  0  0  0  0  0
   19.1305    3.1137    6.0998 C   0  0  0  0  0  0
   19.7355    4.2746    5.2946 C   0  0  0  0  0  0
   19.5246    4.1654    3.7800 C   0  0  0  0  0  0
   -7.9387    6.0544   14.9342 H   0  0  0  0  0  0
   -8.1554    7.5554   14.0222 H   0  0  0  0  0  0
   -6.5386    6.8691   14.2216 H   0  0  0  0  0  0
   -7.2257    4.8641   12.8438 H   0  0  0  0  0  0
   -8.8321    5.5425   12.6478 H   0  0  0  0  0  0
   -7.8563    7.5137   11.4326 H   0  0  0  0  0  0
   -6.2469    6.8445   11.6461 H   0  0  0  0  0  0
   -6.8855    4.8340   10.2977 H   0  0  0  0  0  0
   -8.5273    5.4375   10.1530 H   0  0  0  0  0  0
   -7.3572    5.8769    8.0780 H   0  0  0  0  0  0
   -7.7095    7.4130    8.8506 H   0  0  0  0  0  0
   -5.3540    7.6046    9.6284 H   0  0  0  0  0  0
   -4.9963    5.9939    9.0278 H   0  0  0  0  0  0
   -5.4819    6.7489    6.6892 H   0  0  0  0  0  0
   -5.8667    8.3580    7.2747 H   0  0  0  0  0  0
   -3.5258    8.6410    8.1068 H   0  0  0  0  0  0
   -3.1345    7.0029    7.6101 H   0  0  0  0  0  0
   -3.6310    7.5976    5.2287 H   0  0  0  0  0  0
   -4.0006    9.2463    5.7023 H   0  0  0  0  0  0
   -1.6571    9.5180    6.5810 H   0  0  0  0  0  0
   -1.2850    7.8775    6.0966 H   0  0  0  0  0  0
   -2.0104   10.2205    4.2539 H   0  0  0  0  0  0
   -0.4192    9.5070    4.4582 H   0  0  0  0  0  0
   -2.8580    8.1832    3.1514 H   0  0  0  0  0  0
   -1.4272    8.7850    2.3427 H   0  0  0  0  0  0
   -0.0323    7.0592    3.5448 H   0  0  0  0  0  0
   -1.4801    6.4375    4.3176 H   0  0  0  0  0  0
   -2.4639    5.8957    2.0766 H   0  0  0  0  0  0
   -1.0140    6.4974    1.2901 H   0  0  0  0  0  0
    0.3578    4.7530    2.4583 H   0  0  0  0  0  0
   -1.0756    4.1645    3.2832 H   0  0  0  0  0  0
   -2.1104    3.5602    1.0791 H   0  0  0  0  0  0
   -0.6935    4.1675    0.2387 H   0  0  0  0  0  0
    0.7336    2.4666    1.4000 H   0  0  0  0  0  0
   -0.6724    1.8500    2.2512 H   0  0  0  0  0  0
   -1.7503    1.2775    0.0490 H   0  0  0  0  0  0
   -0.3183    1.8397   -0.7963 H   0  0  0  0  0  0
   -0.3825   -0.4879    1.2057 H   0  0  0  0  0  0
   -0.4243   -0.6571   -0.5411 H   0  0  0  0  0  0
    1.8370    0.4661   -0.6859 H   0  0  0  0  0  0
    1.8907    0.5404    1.0670 H   0  0  0  0  0  0
    1.7663   -1.9589    1.1931 H   0  0  0  0  0  0
    1.6429   -2.0455   -0.5559 H   0  0  0  0  0  0
    3.9267   -2.5623    0.0441 H   0  0  0  0  0  0
    3.9262   -1.0077   -0.7711 H   0  0  0  0  0  0
    4.0736    0.1542    1.4614 H   0  0  0  0  0  0
    4.0397   -1.4037    2.2689 H   0  0  0  0  0  0
    6.1844   -2.0362    1.0945 H   0  0  0  0  0  0
    6.2017   -0.4702    0.3004 H   0  0  0  0  0  0
    6.2949    0.6553    2.5640 H   0  0  0  0  0  0
    6.3288   -0.9222    3.3324 H   0  0  0  0  0  0
    8.4846   -1.4481    2.1208 H   0  0  0  0  0  0
    8.4471    0.1464    1.3861 H   0  0  0  0  0  0
    8.5127    1.1885    3.6903 H   0  0  0  0  0  0
    8.5961   -0.4149    4.3990 H   0  0  0  0  0  0
   10.7652   -0.8279    3.1654 H   0  0  0  0  0  0
   10.6809    0.7950    2.5000 H   0  0  0  0  0  0
   10.7159    1.7390    4.8461 H   0  0  0  0  0  0
   10.8380    0.1097    5.4866 H   0  0  0  0  0  0
   13.0211   -0.1943    4.2435 H   0  0  0  0  0  0
   12.9005    1.4564    3.6568 H   0  0  0  0  0  0
   12.9043    2.2876    6.0441 H   0  0  0  0  0  0
   13.0524    0.6326    6.6087 H   0  0  0  0  0  0
   15.2512    0.4274    5.3739 H   0  0  0  0  0  0
   15.0973    2.0995    4.8600 H   0  0  0  0  0  0
   15.0987    2.8351    7.2696 H   0  0  0  0  0  0
   15.1944    1.1583    7.7781 H   0  0  0  0  0  0
   17.4042    2.0843    7.9643 H   0  0  0  0  0  0
   17.4334    0.9472    6.6279 H   0  0  0  0  0  0
   17.2829    2.8460    5.0001 H   0  0  0  0  0  0
   17.1664    3.9894    6.3277 H   0  0  0  0  0  0
   19.4331    3.2165    7.1510 H   0  0  0  0  0  0
   19.5650    2.1655    5.7507 H   0  0  0  0  0  0
   19.3118    5.2220    5.6558 H   0  0  0  0  0  0
   20.8121    4.3251    5.5024 H   0  0  0  0  0  0
   20.0260    4.9822    3.2503 H   0  0  0  0  0  0
   18.4635    4.2036    3.5136 H   0  0  0  0  0  0
   19.9284    3.2212    3.3954 H   0  0  0  0  0  0
  1  2  1  0  0  0
  1 39  1  0  0  0
  1 40  1  0  0  0
  1 41  1  0  0  0
  2  3  1  0  0  0
  2 42  1  0  0  0
  2 43  1  0  0  0
  3  4  1  0  0  0
  3 44  1  0  0  0
  3 45  1  0  0  0
  4  5  1  0  0  0
  4 46  1  0  0  0
  4 47  1  0  0  0
  5  6  1  0  0  0
  5 48  1  0  0  0
  5 49  1  0  0  0
  6  7  1  0  0  0
  6 50  1  0  0  0
  6 51  1  0  0  0
  7  8  1  0  0  0
  7 52  1  0  0  0
  7 53  1  0  0  0
  8  9  1  0  0  0
  8 54  1  0  0  0
  8 55  1  0  0  0
  9 10  1  0  0  0
  9 56  1  0  0  0
  9 57  1  0  0  0
 10 11  1  0  0  0
 10 58  1  0  0  0
 10 59  1  0  0  0
 11 12  1  0  0  0
 11 60  1  0  0  0
 11 61  1  0  0  0
 12 13  1  0  0  0
 12 62  1  0  0  0
 12 63  1  0  0  0
 13 14  1  0  0  0
 13 64  1  0  0  0
 13 65  1  0  0  0
 14 15  1  0  0  0
 14 66  1  0  0  0
 14 67  1  0  0  0
 15 16  1  0  0  0
 15 68  1  0  0  0
 15 69  1  0  0  0
 16 17  1  0  0  0
 16 70  1  0  0  0
 16 71  1  0  0  0
 17 18  1  0  0  0
 17 72  1  0  0  0
 17 73  1  0  0  0
 18 19  1  0  0  0
 18 74  1  0  0  0
 18 75  1  0  0  0
 19 20  1  0  0  0
 19 76  1  0  0  0
 19 77  1  0  0  0
 20 21  1  0  0  0
 20 78  1  0  0  0
 20 79  1  0  0  0
 21 22  1  0  0  0
 21 80  1  0  0  0
 21 81  1  0  0  0
 22 23  1  0  0  0
 22 82  1  0  0  0
 22 83  1  0  0  0
 23 24  1  0  0  0
 23 84  1  0  0  0
 23 85  1  0  0  0
 24 25  1  0  0  0
 24 86  1  0  0  0
 24 87  1  0  0  0
 25 26  1  0  0  0
 25 88  1  0  0  0
 25 89  1  0  0  0
 26 27  1  0  0  0
 26 90  1  0  0  0
 26 91  1  0  0  0
 27 28  1  0  0  0
 27 92  1  0  0  0
 27 93  1  0  0  0
 28 29  1  0  0  0
 28 94  1  0  0  0
 28 95  1  0  0  0
 29 30  1  0  0  0
 29 96  1  0  0  0
 29 97  1  0  0  0
 30 31  1  0  0  0
 30 98  1  0  0  0
 30 99  1  0  0  0
 31 32  1  0  0  0
 31100  1  0  0  0
 31101  1  0  0  0
 32 33  1  0  0  0
 32102  1  0  0  0
 32103  1  0  0  0
 33 34  1  0  0  0
 33104  1  0  0  0
 33105  1  0  0  0
 34 35  1  0  0  0
 34106  1  0  0  0
 34107  1  0  0  0
 35 36  1  0  0  0
 35108  1  0  0  0
 35109  1  0  0  0
 36 37  1  0  0  0
 36110  1  0  0  0
 36111  1  0  0  0
 37 38  1  0  0  0
 37112  1  0  0  0
 37113  1  0  0  0
 38114  1  0  0  0
 38115  1  0  0  0
 38116  1  0  0  0
M  END
>  <i_m_Spin_multiplicity> (1)
1

>  <s_j_Task> (1)
Single Point

>  <s_j_QM_Method> (1)
DFT(b3lyp-d3)

>  <s_j_QM_Basis> (1)
cc-pvtz(-f)

>  <i_j_Number_of_canonical_orbitals> (1)
1564

>  <i_j_Geometry_convergence_category> (1)
3

>  <r_j_Gas_Phase_Energy> (1)
-1495.71828741796

>  <r_j_Final_Energy> (1)
-1495.71828741796

>  <r_j_HOMO> (1)
-0.281305377476291

>  <r_j_LUMO> (1)
0.00245191325935176

>  <r_j_Polarizability> (1)
471.80503511744

>  <r_j_QM_Dipole_(debye)> (1)
0.0182102823526697

>  <r_j_QM_Dipole_X_(debye)> (1)
0.0137218993450504

>  <r_j_QM_Dipole_Y_(debye)> (1)
-0.0101278595020373

>  <r_j_QM_Dipole_Z_(debye)> (1)
0.00638359801642072

>  <r_j_Lowest_Frequency_(cm-1)> (1)
11.3465959187474

>  <r_j_Highest_Frequency_(cm-1)> (1)
3051.0303943869

>  <r_j_2nd_Lowest_Frequency_(cm-1)> (1)
17.6987593665165

>  <i_j_Num_Negative_Frequencies> (1)
0

>  <r_j_Zero_Point_Energy_(kcal/mol)> (1)
690.763247096505

>  <r_j_Entropy_(cal/mol/K)_298.15K_1.00E+00atm> (1)
257.069332824626

>  <r_j_Enthalpy_(kcal/mol)_298.15K_1.00E+00atm> (1)
29.6769476198491

>  <r_j_Free_Energy_(kcal/mol)_298.15K_1.00E+00atm> (1)
-46.9682739618132

>  <r_j_Internal_Energy_(kcal/mol)_298.15K_1.00E+00atm> (1)
29.0844620310218

>  <r_j_Heat_Capacity_(cal/mol/K)_298.15K_1.00E+00atm> (1)
180.076490183662

>  <r_j_ln(Q)_298.15K_1.00E+00atm> (1)
79.2732765952654

>  <r_j_Total_Internal_Energy_(au)_298.15K_1.00E+00atm> (1)
-1494.57113706639

>  <r_j_Total_Enthalpy_(au)_298.15K_1.00E+00atm> (1)
-1494.5701928805

>  <r_j_Total_Free_Energy_(au)_298.15K_1.00E+00atm> (1)
-1494.69233481659

>  <r_lp_tautomer_probability> (1)
1

>  <r_epik_Ionization_Penalty> (1)
  0.0000

>  <r_epik_Ionization_Penalty_Charging> (1)
  0.0000

>  <r_epik_Ionization_Penalty_Neutral> (1)
  0.0000

>  <r_epik_State_Penalty> (1)
  0.0000

>  <r_epik_Charging_Adjusted_Penalty> (1)
0

>  <i_epik_Tot_Q> (1)
0

>  <i_epik_Tot_abs_Q> (1)
0

>  <s_lp_Force_Field> (1)
S-OPLS

>  <r_lp_Energy> (1)
22.0516

>  <b_lp_Chiralities_Consistent> (1)
1

$$$$
