23666346_2-Pyrrolidone-5-Carboxylic Acid, Sodium Salt
                    3D
 Schrodinger Suite 2021-3.
 15 15  0  0  1  0            999 V2000
   -0.7718   -0.6872   -1.2632 C   0  0  0  0  0  0
   -1.6026    0.5394   -1.6762 C   0  0  0  0  0  0
   -1.5904    1.4665   -0.4515 C   0  0  0  0  0  0
   -2.2086    2.5223   -0.3444 O   0  0  0  0  0  0
   -0.7444    0.9214    0.4717 N   0  0  0  0  0  0
    0.0454   -0.2019   -0.0473 C   0  0  0  0  0  0
    1.5311    0.2420   -0.3517 C   0  0  0  0  0  0
    1.9344    1.1880    0.3731 O   0  0  0  0  0  0
    2.1264   -0.4276   -1.2262 O   0  5  0  0  0  0
   -0.0747   -1.0372   -2.0274 H   0  0  0  0  0  0
   -1.4358   -1.5160   -0.9868 H   0  0  0  0  0  0
   -1.1282    1.1048   -2.4876 H   0  0  0  0  0  0
   -2.6278    0.3213   -1.9920 H   0  0  0  0  0  0
   -0.2035    1.5594    1.0497 H   0  0  0  0  0  0
    0.1072   -0.9895    0.7167 H   0  0  0  0  0  0
  1  6  1  0  0  0
  1  2  1  0  0  0
  1 10  1  0  0  0
  1 11  1  0  0  0
  2  3  1  0  0  0
  2 12  1  0  0  0
  2 13  1  0  0  0
  3  4  2  0  0  0
  3  5  1  0  0  0
  5  6  1  0  0  0
  5 14  1  0  0  0
  6  7  1  0  0  0
  6 15  1  0  0  0
  7  8  2  0  0  0
  7  9  1  0  0  0
M  END
>  <i_m_Spin_multiplicity> (1)
1

>  <s_j_Task> (1)
Single Point

>  <s_j_QM_Method> (1)
DFT(b3lyp-d3)

>  <s_j_QM_Basis> (1)
cc-pvtz(-f)

>  <i_j_Number_of_canonical_orbitals> (1)
260

>  <i_j_Geometry_convergence_category> (1)
0

>  <r_j_Gas_Phase_Energy> (1)
-474.835198714566

>  <r_j_Final_Energy> (1)
-474.835198714566

>  <r_j_HOMO> (1)
-0.0518685697458405

>  <r_j_LUMO> (1)
0.154739186398675

>  <r_j_Polarizability> (1)
73.6312466217684

>  <r_j_QM_Dipole_(debye)> (1)
5.56325959835136

>  <r_j_QM_Dipole_X_(debye)> (1)
-5.10252935672973

>  <r_j_QM_Dipole_Y_(debye)> (1)
-2.19129569082292

>  <r_j_QM_Dipole_Z_(debye)> (1)
-0.335074197366393

>  <r_j_Lowest_Frequency_(cm-1)> (1)
87.6447252775633

>  <r_j_Highest_Frequency_(cm-1)> (1)
3492.67217804075

>  <r_j_2nd_Lowest_Frequency_(cm-1)> (1)
101.110593914484

>  <i_j_Num_Negative_Frequencies> (1)
0

>  <r_j_Zero_Point_Energy_(kcal/mol)> (1)
70.2649897660502

>  <r_j_Entropy_(cal/mol/K)_298.15K_1.00E+00atm> (1)
86.4980947258919

>  <r_j_Enthalpy_(kcal/mol)_298.15K_1.00E+00atm> (1)
5.3169581731381

>  <r_j_Free_Energy_(kcal/mol)_298.15K_1.00E+00atm> (1)
-20.4724487693866

>  <r_j_Internal_Energy_(kcal/mol)_298.15K_1.00E+00atm> (1)
4.72447258431082

>  <r_j_Heat_Capacity_(cal/mol/K)_298.15K_1.00E+00atm> (1)
27.8914497664391

>  <r_j_ln(Q)_298.15K_1.00E+00atm> (1)
34.5534965836188

>  <r_j_Total_Internal_Energy_(au)_298.15K_1.00E+00atm> (1)
-474.715695398783

>  <r_j_Total_Enthalpy_(au)_298.15K_1.00E+00atm> (1)
-474.71475121289

>  <r_j_Total_Free_Energy_(au)_298.15K_1.00E+00atm> (1)
-474.755849249136

>  <r_epik_Ionization_Penalty> (1)
  0.0003

>  <r_epik_Ionization_Penalty_Charging> (1)
  0.0003

>  <r_epik_Ionization_Penalty_Neutral> (1)
  0.0000

>  <r_epik_State_Penalty> (1)
  0.0002

>  <r_epik_Charging_Adjusted_Penalty> (1)
0.000479877

>  <i_epik_Tot_Q> (1)
-1

>  <i_epik_Tot_abs_Q> (1)
1

>  <s_lp_Force_Field> (1)
S-OPLS

>  <r_lp_Energy> (1)
6.20341

>  <b_lp_Chiralities_Consistent> (1)
1

$$$$
