23866_3,4-dimethyl-1-pentene
                    3D
 Schrodinger Suite 2021-3.
 21 20  0  0  1  0            999 V2000
   -0.5967   -0.6754    1.2654 C   0  0  0  0  0  0
   -0.0283   -0.0318   -0.0087 C   0  0  0  0  0  0
   -0.5678   -0.7602   -1.2487 C   0  0  0  0  0  0
    1.5268    0.0022   -0.0079 C   0  0  0  0  0  0
    2.1024    0.6976    1.2422 C   0  0  0  0  0  0
    2.0559    0.6928   -1.2404 C   0  0  0  0  0  0
    2.8525    0.1476   -2.1592 C   0  0  0  0  0  0
   -0.2004   -1.6902    1.3963 H   0  0  0  0  0  0
   -1.6873   -0.7528    1.2041 H   0  0  0  0  0  0
   -0.3589   -0.1029    2.1659 H   0  0  0  0  0  0
   -0.3760    1.0126   -0.0462 H   0  0  0  0  0  0
   -0.2471   -1.8096   -1.2473 H   0  0  0  0  0  0
   -0.2061   -0.3068   -2.1751 H   0  0  0  0  0  0
   -1.6628   -0.7475   -1.2640 H   0  0  0  0  0  0
    1.8809   -1.0396   -0.0176 H   0  0  0  0  0  0
    3.1923    0.7660    1.1755 H   0  0  0  0  0  0
    1.8560    0.1564    2.1595 H   0  0  0  0  0  0
    1.7087    1.7171    1.3361 H   0  0  0  0  0  0
    1.7514    1.7360   -1.3517 H   0  0  0  0  0  0
    3.1784   -0.8876   -2.0866 H   0  0  0  0  0  0
    3.2103    0.7120   -3.0155 H   0  0  0  0  0  0
  1  2  1  0  0  0
  1  8  1  0  0  0
  1  9  1  0  0  0
  1 10  1  0  0  0
  2  3  1  0  0  0
  2  4  1  0  0  0
  2 11  1  0  0  0
  3 12  1  0  0  0
  3 13  1  0  0  0
  3 14  1  0  0  0
  4  5  1  0  0  0
  4  6  1  0  0  0
  4 15  1  0  0  0
  5 16  1  0  0  0
  5 17  1  0  0  0
  5 18  1  0  0  0
  6  7  2  0  0  0
  6 19  1  0  0  0
  7 20  1  0  0  0
  7 21  1  0  0  0
M  END
>  <i_m_Spin_multiplicity> (1)
1

>  <s_j_Task> (1)
Single Point

>  <s_j_QM_Method> (1)
DFT(b3lyp-d3)

>  <s_j_QM_Basis> (1)
cc-pvtz(-f)

>  <i_j_Number_of_canonical_orbitals> (1)
284

>  <i_j_Geometry_convergence_category> (1)
0

>  <r_j_Gas_Phase_Energy> (1)
-275.274194098927

>  <r_j_Final_Energy> (1)
-275.274194098927

>  <r_j_HOMO> (1)
-0.251877212917405

>  <r_j_LUMO> (1)
0.0143239093271377

>  <r_j_Polarizability> (1)
85.5185605008001

>  <r_j_QM_Dipole_(debye)> (1)
0.336042336996043

>  <r_j_QM_Dipole_X_(debye)> (1)
-0.181687679103722

>  <r_j_QM_Dipole_Y_(debye)> (1)
0.0682548426152267

>  <r_j_QM_Dipole_Z_(debye)> (1)
0.27432702377862

>  <r_j_Lowest_Frequency_(cm-1)> (1)
95.2972377173642

>  <r_j_Highest_Frequency_(cm-1)> (1)
3166.21727644423

>  <r_j_2nd_Lowest_Frequency_(cm-1)> (1)
131.10654881683

>  <i_j_Num_Negative_Frequencies> (1)
0

>  <r_j_Zero_Point_Energy_(kcal/mol)> (1)
121.004281383686

>  <r_j_Entropy_(cal/mol/K)_298.15K_1.00E+00atm> (1)
87.6482915548728

>  <r_j_Enthalpy_(kcal/mol)_298.15K_1.00E+00atm> (1)
5.96111633882439

>  <r_j_Free_Energy_(kcal/mol)_298.15K_1.00E+00atm> (1)
-20.1712217882609

>  <r_j_Internal_Energy_(kcal/mol)_298.15K_1.00E+00atm> (1)
5.36863074999712

>  <r_j_Heat_Capacity_(cal/mol/K)_298.15K_1.00E+00atm> (1)
32.7131025190145

>  <r_j_ln(Q)_298.15K_1.00E+00atm> (1)
34.0450842495367

>  <r_j_Total_Internal_Energy_(au)_298.15K_1.00E+00atm> (1)
-275.072806043168

>  <r_j_Total_Enthalpy_(au)_298.15K_1.00E+00atm> (1)
-275.071861857276

>  <r_j_Total_Free_Energy_(au)_298.15K_1.00E+00atm> (1)
-275.113506389154

>  <r_lp_tautomer_probability> (1)
1

>  <r_epik_Ionization_Penalty> (1)
  0.0000

>  <r_epik_Ionization_Penalty_Charging> (1)
  0.0000

>  <r_epik_Ionization_Penalty_Neutral> (1)
  0.0000

>  <r_epik_State_Penalty> (1)
  0.0000

>  <r_epik_Charging_Adjusted_Penalty> (1)
0

>  <i_epik_Tot_Q> (1)
0

>  <i_epik_Tot_abs_Q> (1)
0

>  <s_lp_Force_Field> (1)
S-OPLS

>  <r_lp_Energy> (1)
3.61994

>  <b_lp_Chiralities_Consistent> (1)
1

$$$$
