238792_Manool
                    3D
 Schrodinger Suite 2021-3.
 55 56  0  0  1  0            999 V2000
   -5.0302    2.2292   -1.4852 C   0  0  0  0  0  0
   -4.2311    0.9099   -1.4278 C   0  0  0  0  0  0
   -4.6805    0.0677   -0.2067 C   0  0  0  0  0  0
   -4.1599    0.5841    1.1386 C   0  0  0  0  0  0
   -2.6278    0.6409    1.1261 C   0  0  0  0  0  0
   -2.0671    1.5473    0.0059 C   0  0  0  0  0  0
   -2.6728    1.0960   -1.3720 C   0  0  0  0  0  0
   -2.1004    1.9312   -2.5341 C   0  0  0  0  0  0
   -0.5605    1.8656   -2.5717 C   0  0  0  0  0  0
    0.0322    2.2346   -1.2337 C   0  0  0  0  0  0
    0.9255    3.2175   -1.0870 C   0  0  0  0  0  0
   -0.4937    1.4217   -0.0633 C   0  0  0  0  0  0
    0.0466   -0.0287   -0.1004 C   0  0  0  0  0  0
    1.5681   -0.1047   -0.2564 C   0  0  0  0  0  0
    2.1387   -1.5199    0.0056 C   0  0  0  0  0  0
    3.6705   -1.5119   -0.1525 C   0  0  0  0  0  0
    1.5415   -2.5125   -0.9652 C   0  0  0  0  0  0
    0.8312   -3.5891   -0.6365 C   0  0  0  0  0  0
    1.7975   -1.9522    1.3288 O   0  0  0  0  0  0
   -2.3632    3.0224    0.3653 C   0  0  0  0  0  0
   -4.5958    0.1054   -2.6967 C   0  0  0  0  0  0
   -6.0884    2.0101   -1.6677 H   0  0  0  0  0  0
   -4.6859    2.8738   -2.2996 H   0  0  0  0  0  0
   -4.9754    2.8054   -0.5612 H   0  0  0  0  0  0
   -5.7765    0.0063   -0.1980 H   0  0  0  0  0  0
   -4.3153   -0.9606   -0.3435 H   0  0  0  0  0  0
   -4.5863    1.5685    1.3634 H   0  0  0  0  0  0
   -4.4968   -0.0805    1.9432 H   0  0  0  0  0  0
   -2.2397    0.9780    2.0965 H   0  0  0  0  0  0
   -2.2659   -0.3835    0.9850 H   0  0  0  0  0  0
   -2.2910    0.0749   -1.5185 H   0  0  0  0  0  0
   -2.4929    1.5721   -3.4902 H   0  0  0  0  0  0
   -2.4113    2.9779   -2.4454 H   0  0  0  0  0  0
   -0.2645    0.8378   -2.8293 H   0  0  0  0  0  0
   -0.1667    2.5148   -3.3613 H   0  0  0  0  0  0
    1.2881    3.7917   -1.9358 H   0  0  0  0  0  0
    1.3252    3.4833   -0.1119 H   0  0  0  0  0  0
   -0.1036    1.8710    0.8610 H   0  0  0  0  0  0
   -0.2131   -0.5399    0.8298 H   0  0  0  0  0  0
   -0.4232   -0.6065   -0.9025 H   0  0  0  0  0  0
    1.8745    0.2298   -1.2541 H   0  0  0  0  0  0
    2.0490    0.5924    0.4465 H   0  0  0  0  0  0
    3.9653   -1.2479   -1.1733 H   0  0  0  0  0  0
    4.0724   -2.5002    0.0850 H   0  0  0  0  0  0
    4.1215   -0.7765    0.5251 H   0  0  0  0  0  0
    1.7372   -2.2819   -2.0123 H   0  0  0  0  0  0
    0.6270   -3.8285    0.4011 H   0  0  0  0  0  0
    0.4385   -4.2580   -1.3964 H   0  0  0  0  0  0
    2.1755   -1.3108    1.9447 H   0  0  0  0  0  0
   -2.0180    3.7155   -0.4041 H   0  0  0  0  0  0
   -1.8354    3.2840    1.2898 H   0  0  0  0  0  0
   -3.4221    3.2116    0.5358 H   0  0  0  0  0  0
   -3.9989   -0.8103   -2.7753 H   0  0  0  0  0  0
   -4.4467    0.6858   -3.6122 H   0  0  0  0  0  0
   -5.6515   -0.1869   -2.6677 H   0  0  0  0  0  0
  1  2  1  0  0  0
  1 22  1  0  0  0
  1 23  1  0  0  0
  1 24  1  0  0  0
  2  7  1  0  0  0
  2  3  1  0  0  0
  2 21  1  0  0  0
  3  4  1  0  0  0
  3 25  1  0  0  0
  3 26  1  0  0  0
  4  5  1  0  0  0
  4 27  1  0  0  0
  4 28  1  0  0  0
  5  6  1  0  0  0
  5 29  1  0  0  0
  5 30  1  0  0  0
  6 12  1  0  0  0
  6  7  1  0  0  0
  6 20  1  0  0  0
  7  8  1  0  0  0
  7 31  1  0  0  0
  8  9  1  0  0  0
  8 32  1  0  0  0
  8 33  1  0  0  0
  9 10  1  0  0  0
  9 34  1  0  0  0
  9 35  1  0  0  0
 10 11  2  0  0  0
 10 12  1  0  0  0
 11 36  1  0  0  0
 11 37  1  0  0  0
 12 13  1  0  0  0
 12 38  1  0  0  0
 13 14  1  0  0  0
 13 39  1  0  0  0
 13 40  1  0  0  0
 14 15  1  0  0  0
 14 41  1  0  0  0
 14 42  1  0  0  0
 15 16  1  0  0  0
 15 17  1  0  0  0
 15 19  1  0  0  0
 16 43  1  0  0  0
 16 44  1  0  0  0
 16 45  1  0  0  0
 17 18  2  0  0  0
 17 46  1  0  0  0
 18 47  1  0  0  0
 18 48  1  0  0  0
 19 49  1  0  0  0
 20 50  1  0  0  0
 20 51  1  0  0  0
 20 52  1  0  0  0
 21 53  1  0  0  0
 21 54  1  0  0  0
 21 55  1  0  0  0
M  END
>  <i_m_Spin_multiplicity> (1)
1

>  <s_j_Task> (1)
Single Point

>  <s_j_QM_Method> (1)
DFT(b3lyp-d3)

>  <s_j_QM_Basis> (1)
cc-pvtz(-f)

>  <i_j_Number_of_canonical_orbitals> (1)
776

>  <i_j_Geometry_convergence_category> (1)
3

>  <r_j_Gas_Phase_Energy> (1)
-858.148531865649

>  <r_j_Final_Energy> (1)
-858.148531865649

>  <r_j_HOMO> (1)
-0.22914245482769

>  <r_j_LUMO> (1)
-0.000426055143997571

>  <r_j_Polarizability> (1)
230.625044864323

>  <r_j_QM_Dipole_(debye)> (1)
0.938975885802264

>  <r_j_QM_Dipole_X_(debye)> (1)
0.409354795562742

>  <r_j_QM_Dipole_Y_(debye)> (1)
0.813665143012669

>  <r_j_QM_Dipole_Z_(debye)> (1)
-0.228152143347605

>  <r_j_Lowest_Frequency_(cm-1)> (1)
52.3859360465559

>  <r_j_Highest_Frequency_(cm-1)> (1)
3760.65987259953

>  <r_j_2nd_Lowest_Frequency_(cm-1)> (1)
54.9418341325574

>  <i_j_Num_Negative_Frequencies> (1)
0

>  <r_j_Zero_Point_Energy_(kcal/mol)> (1)
315.282560450101

>  <r_j_Entropy_(cal/mol/K)_298.15K_1.00E+00atm> (1)
143.062965674478

>  <r_j_Enthalpy_(kcal/mol)_298.15K_1.00E+00atm> (1)
13.9432175337572

>  <r_j_Free_Energy_(kcal/mol)_298.15K_1.00E+00atm> (1)
-28.7110056820885

>  <r_j_Internal_Energy_(kcal/mol)_298.15K_1.00E+00atm> (1)
13.3507319449299

>  <r_j_Heat_Capacity_(cal/mol/K)_298.15K_1.00E+00atm> (1)
90.197312667247

>  <r_j_ln(Q)_298.15K_1.00E+00atm> (1)
48.4585721973713

>  <r_j_Total_Internal_Energy_(au)_298.15K_1.00E+00atm> (1)
-857.624821375041

>  <r_j_Total_Enthalpy_(au)_298.15K_1.00E+00atm> (1)
-857.623877189149

>  <r_j_Total_Free_Energy_(au)_298.15K_1.00E+00atm> (1)
-857.691851021027

>  <r_lp_tautomer_probability> (1)
1

>  <r_epik_Ionization_Penalty> (1)
  0.0000

>  <r_epik_Ionization_Penalty_Charging> (1)
  0.0000

>  <r_epik_Ionization_Penalty_Neutral> (1)
  0.0000

>  <r_epik_State_Penalty> (1)
  0.0000

>  <r_epik_Charging_Adjusted_Penalty> (1)
0

>  <i_epik_Tot_Q> (1)
0

>  <i_epik_Tot_abs_Q> (1)
0

>  <s_lp_Force_Field> (1)
S-OPLS

>  <r_lp_Energy> (1)
36.1258

>  <b_lp_Chiralities_Consistent> (1)
1

$$$$
