23990_Vanadium
                    3D
 Schrodinger Suite 2021-3.
  1  0  0  0  1  0            999 V2000
    0.0000    0.0000    0.0000 V   0  0  0  0  0  0
M  END
>  <i_m_Spin_multiplicity> (1)
2

>  <s_j_Task> (1)
Single Point

>  <s_j_QM_Method> (1)
UDFT(b3lyp-d3)

>  <s_j_QM_Basis> (1)
lacv3p**

>  <i_j_Number_of_canonical_orbitals> (1)
31

>  <r_j_Gas_Phase_Energy> (1)
-71.1114867292838

>  <r_j_Final_Energy> (1)
-71.1114867292838

>  <r_j_Polarizability> (1)
83.0279761961858

>  <r_j_QM_Dipole_(debye)> (1)
0

>  <r_j_QM_Dipole_X_(debye)> (1)
0

>  <r_j_QM_Dipole_Y_(debye)> (1)
0

>  <r_j_QM_Dipole_Z_(debye)> (1)
0

>  <r_j_Zero_Point_Energy_(kcal/mol)> (1)
0

>  <r_j_Entropy_(cal/mol/K)_298.15K_1.00E+00atm> (1)
39.0850918200443

>  <r_j_Enthalpy_(kcal/mol)_298.15K_1.00E+00atm> (1)
1.48121397206819

>  <r_j_Free_Energy_(kcal/mol)_298.15K_1.00E+00atm> (1)
-10.172006154078

>  <r_j_Internal_Energy_(kcal/mol)_298.15K_1.00E+00atm> (1)
0.888728383240912

>  <r_j_Heat_Capacity_(cal/mol/K)_298.15K_1.00E+00atm> (1)
2.98080960335707

>  <r_j_ln(Q)_298.15K_1.00E+00atm> (1)
17.1683604561788

>  <r_j_Total_Internal_Energy_(au)_298.15K_1.00E+00atm> (1)
-71.1100704504454

>  <r_j_Total_Enthalpy_(au)_298.15K_1.00E+00atm> (1)
-71.1091262645532

>  <r_j_Total_Free_Energy_(au)_298.15K_1.00E+00atm> (1)
-71.1276968530196

>  <r_j_alpha_HOMO> (1)
-0.194587801671011

>  <r_j_alpha_LUMO> (1)
-0.18071833685435

>  <r_j_beta_HOMO> (1)
-0.187855637760191

>  <r_j_beta_LUMO> (1)
-0.161941026978578

>  <r_j_S2_Value> (1)
0.750542181287286

$$$$
