24121_6-nitrochrysene
                    3D
 Schrodinger Suite 2021-3.
 32 35  0  0  1  0            999 V2000
   -4.2646    4.9164    0.0004 C   0  0  0  0  0  0
   -2.8562    4.9291    0.0002 C   0  0  0  0  0  0
   -2.1415    3.7475   -0.0001 C   0  0  0  0  0  0
   -2.7988    2.4926   -0.0001 C   0  0  0  0  0  0
   -4.2237    2.4881    0.0000 C   0  0  0  0  0  0
   -4.9346    3.7121    0.0003 C   0  0  0  0  0  0
   -4.9089    1.2374   -0.0002 C   0  0  0  0  0  0
   -4.2376    0.0497   -0.0003 C   0  0  0  0  0  0
   -2.8083   -0.0001   -0.0003 C   0  0  0  0  0  0
   -2.0958    1.2218   -0.0003 C   0  0  0  0  0  0
   -0.6808    1.1765   -0.0003 C   0  0  0  0  0  0
    0.0197    0.0019   -0.0001 C   0  0  0  0  0  0
   -0.6427   -1.2809    0.0000 C   0  0  0  0  0  0
    0.0152   -2.5388    0.0003 C   0  0  0  0  0  0
   -0.6976   -3.7195    0.0004 C   0  0  0  0  0  0
   -2.1015   -3.7029    0.0002 C   0  0  0  0  0  0
   -2.7689   -2.4971   -0.0001 C   0  0  0  0  0  0
   -2.0802   -1.2573   -0.0001 C   0  0  0  0  0  0
    1.4921    0.1692   -0.0001 N   0  3  1  0  0  0
    2.2163   -0.8281    0.0000 O   0  0  0  0  0  0
    1.9405    1.3187   -0.0001 O   0  5  0  0  0  0
   -4.8162    5.8515    0.0007 H   0  0  0  0  0  0
   -2.3255    5.8764    0.0003 H   0  0  0  0  0  0
   -1.0592    3.7993   -0.0002 H   0  0  0  0  0  0
   -6.0209    3.6845    0.0004 H   0  0  0  0  0  0
   -5.9957    1.2440   -0.0002 H   0  0  0  0  0  0
   -4.8134   -0.8658   -0.0004 H   0  0  0  0  0  0
   -0.1031    2.0880   -0.0003 H   0  0  0  0  0  0
    1.0920   -2.5641    0.0004 H   0  0  0  0  0  0
   -0.1626   -4.6642    0.0006 H   0  0  0  0  0  0
   -2.6615   -4.6328    0.0003 H   0  0  0  0  0  0
   -3.8510   -2.5103   -0.0002 H   0  0  0  0  0  0
  1  6  1  0  0  0
  1  2  2  0  0  0
  1 22  1  0  0  0
  2  3  1  0  0  0
  2 23  1  0  0  0
  3  4  2  0  0  0
  3 24  1  0  0  0
  4 10  1  0  0  0
  4  5  1  0  0  0
  5  6  2  0  0  0
  5  7  1  0  0  0
  6 25  1  0  0  0
  7  8  2  0  0  0
  7 26  1  0  0  0
  8  9  1  0  0  0
  8 27  1  0  0  0
  9 18  1  0  0  0
  9 10  2  0  0  0
 10 11  1  0  0  0
 11 12  2  0  0  0
 11 28  1  0  0  0
 12 13  1  0  0  0
 12 19  1  0  0  0
 13 18  1  0  0  0
 13 14  2  0  0  0
 14 15  1  0  0  0
 14 29  1  0  0  0
 15 16  2  0  0  0
 15 30  1  0  0  0
 16 17  1  0  0  0
 16 31  1  0  0  0
 17 18  2  0  0  0
 17 32  1  0  0  0
 19 20  2  0  0  0
 19 21  1  0  0  0
M  END
>  <i_m_Spin_multiplicity> (1)
1

>  <s_j_Task> (1)
Single Point

>  <s_j_QM_Method> (1)
DFT(b3lyp-d3)

>  <s_j_QM_Basis> (1)
cc-pvtz(-f)

>  <i_j_Number_of_canonical_orbitals> (1)
564

>  <i_j_Geometry_convergence_category> (1)
0

>  <r_j_Gas_Phase_Energy> (1)
-897.975078441688

>  <r_j_Final_Energy> (1)
-897.975078441688

>  <r_j_HOMO> (1)
-0.228091408670339

>  <r_j_LUMO> (1)
-0.10262748944377

>  <r_j_Polarizability> (1)
243.243831563479

>  <r_j_QM_Dipole_(debye)> (1)
5.32597117982582

>  <r_j_QM_Dipole_X_(debye)> (1)
-5.32523704136661

>  <r_j_QM_Dipole_Y_(debye)> (1)
0.0884272184353548

>  <r_j_QM_Dipole_Z_(debye)> (1)
0.000297711256071583

>  <r_j_Lowest_Frequency_(cm-1)> (1)
47.7145046011707

>  <r_j_Highest_Frequency_(cm-1)> (1)
3239.43141825476

>  <r_j_2nd_Lowest_Frequency_(cm-1)> (1)
64.2894921489253

>  <i_j_Num_Negative_Frequencies> (1)
0

>  <r_j_Zero_Point_Energy_(kcal/mol)> (1)
152.474086108141

>  <r_j_Entropy_(cal/mol/K)_298.15K_1.00E+00atm> (1)
117.590751169275

>  <r_j_Enthalpy_(kcal/mol)_298.15K_1.00E+00atm> (1)
9.53541540141548

>  <r_j_Free_Energy_(kcal/mol)_298.15K_1.00E+00atm> (1)
-25.5242670597039

>  <r_j_Internal_Energy_(kcal/mol)_298.15K_1.00E+00atm> (1)
8.94292981258821

>  <r_j_Heat_Capacity_(cal/mol/K)_298.15K_1.00E+00atm> (1)
60.1180635117629

>  <r_j_ln(Q)_298.15K_1.00E+00atm> (1)
43.0799795657898

>  <r_j_Total_Internal_Energy_(au)_298.15K_1.00E+00atm> (1)
-897.717844051392

>  <r_j_Total_Enthalpy_(au)_298.15K_1.00E+00atm> (1)
-897.716899865499

>  <r_j_Total_Free_Energy_(au)_298.15K_1.00E+00atm> (1)
-897.772771026234

>  <r_lp_tautomer_probability> (1)
1

>  <r_epik_Ionization_Penalty> (1)
  0.0000

>  <r_epik_Ionization_Penalty_Charging> (1)
  0.0000

>  <r_epik_Ionization_Penalty_Neutral> (1)
  0.0000

>  <r_epik_State_Penalty> (1)
  0.0000

>  <r_epik_Charging_Adjusted_Penalty> (1)
0

>  <i_epik_Tot_Q> (1)
0

>  <i_epik_Tot_abs_Q> (1)
2

>  <s_lp_Force_Field> (1)
S-OPLS

>  <r_lp_Energy> (1)
55.444137

>  <b_lp_Chiralities_Consistent> (1)
1

$$$$
