24193_Titanium tetrachloride
                    3D
 Schrodinger Suite 2021-3.
  5  4  0  0  1  0            999 V2000
    1.5871    1.5811    0.0000 Cl  0  0  0  0  0  0
    0.0002   -0.0002    0.0000 Ti  0  0  0  0  0  0
    1.5806   -1.5876    0.0000 Cl  0  0  0  0  0  0
   -1.5805    1.5874    0.0000 Cl  0  0  0  0  0  0
   -1.5876   -1.5805    0.0000 Cl  0  0  0  0  0  0
  1  2  1  0  0  0
  2  3  1  0  0  0
  2  4  1  0  0  0
  2  5  1  0  0  0
M  END
>  <i_m_Spin_multiplicity> (1)
1

>  <s_j_Task> (1)
Single Point

>  <s_j_QM_Method> (1)
DFT(b3lyp-d3)

>  <s_j_QM_Basis> (1)
lacv3p**

>  <i_j_Number_of_canonical_orbitals> (1)
135

>  <i_j_Geometry_convergence_category> (1)
3

>  <r_j_Gas_Phase_Energy> (1)
-1899.16759846632

>  <r_j_Final_Energy> (1)
-1899.16759846632

>  <r_j_HOMO> (1)
-0.316224395772954

>  <r_j_LUMO> (1)
-0.21945874533839

>  <r_j_Polarizability> (1)
99.1470824161167

>  <r_j_QM_Dipole_(debye)> (1)
0.00443164114139677

>  <r_j_QM_Dipole_X_(debye)> (1)
0.00337753456191874

>  <r_j_QM_Dipole_Y_(debye)> (1)
-0.00286909454169166

>  <r_j_QM_Dipole_Z_(debye)> (1)
0

>  <r_j_Lowest_Frequency_(cm-1)> (1)
-132.223203513145

>  <r_j_Highest_Frequency_(cm-1)> (1)
439.919012088582

>  <r_j_2nd_Lowest_Frequency_(cm-1)> (1)
69.8973512508441

>  <i_j_Num_Negative_Frequencies> (1)
1

>  <r_j_Zero_Point_Energy_(kcal/mol)> (1)
3.14178261701287

>  <r_j_Entropy_(cal/mol/K)_298.15K_1.00E+00atm> (1)
85.8482142228916

>  <r_j_Enthalpy_(kcal/mol)_298.15K_1.00E+00atm> (1)
4.75614738785648

>  <r_j_Free_Energy_(kcal/mol)_298.15K_1.00E+00atm> (1)
-20.8394976826986

>  <r_j_Internal_Energy_(kcal/mol)_298.15K_1.00E+00atm> (1)
4.16366179902921

>  <r_j_Heat_Capacity_(cal/mol/K)_298.15K_1.00E+00atm> (1)
19.4775351374436

>  <r_j_ln(Q)_298.15K_1.00E+00atm> (1)
35.1730034884847

>  <r_j_Total_Internal_Energy_(au)_298.15K_1.00E+00atm> (1)
-1899.15595649952

>  <r_j_Total_Enthalpy_(au)_298.15K_1.00E+00atm> (1)
-1899.15501231363

>  <r_j_Total_Free_Energy_(au)_298.15K_1.00E+00atm> (1)
-1899.19580157067

$$$$
