243_Benzoic acid
                    3D
 Schrodinger Suite 2021-3.
 14 14  0  0  1  0            999 V2000
   -2.7908   -0.0020    0.0000 C   0  0  0  0  0  0
   -2.0882    1.2069    0.0000 C   0  0  0  0  0  0
   -0.6922    1.2050    0.0000 C   0  0  0  0  0  0
    0.0271    0.0046    0.0000 C   0  0  0  0  0  0
   -0.6866   -1.1992    0.0000 C   0  0  0  0  0  0
   -2.0825   -1.2076    0.0000 C   0  0  0  0  0  0
    1.5839    0.0083    0.0000 C   0  0  0  0  0  0
    2.1180   -1.1293    0.0001 O   0  0  0  0  0  0
    2.1126    1.1483   -0.0001 O   0  5  0  0  0  0
   -3.8796   -0.0046    0.0000 H   0  0  0  0  0  0
   -2.6343    2.1498    0.0000 H   0  0  0  0  0  0
   -0.1116    2.1234    0.0001 H   0  0  0  0  0  0
   -0.1017   -2.1149    0.0000 H   0  0  0  0  0  0
   -2.6242   -2.1531    0.0000 H   0  0  0  0  0  0
  1  6  1  0  0  0
  1  2  2  0  0  0
  1 10  1  0  0  0
  2  3  1  0  0  0
  2 11  1  0  0  0
  3  4  2  0  0  0
  3 12  1  0  0  0
  4  5  1  0  0  0
  4  7  1  0  0  0
  5  6  2  0  0  0
  5 13  1  0  0  0
  6 14  1  0  0  0
  7  8  2  0  0  0
  7  9  1  0  0  0
M  END
>  <i_m_Spin_multiplicity> (1)
1

>  <s_j_Task> (1)
Single Point

>  <s_j_QM_Method> (1)
DFT(b3lyp-d3)

>  <s_j_QM_Basis> (1)
cc-pvtz(-f)

>  <i_j_Number_of_canonical_orbitals> (1)
247

>  <i_j_Geometry_convergence_category> (1)
0

>  <r_j_Gas_Phase_Energy> (1)
-420.416531336985

>  <r_j_Final_Energy> (1)
-420.416531336985

>  <r_j_HOMO> (1)
-0.0470328125091342

>  <r_j_LUMO> (1)
0.117996529220104

>  <r_j_Polarizability> (1)
85.3795304881722

>  <r_j_QM_Dipole_(debye)> (1)
8.10829754319432

>  <r_j_QM_Dipole_X_(debye)> (1)
-8.10828341956743

>  <r_j_QM_Dipole_Y_(debye)> (1)
-0.0151338880171525

>  <r_j_QM_Dipole_Z_(debye)> (1)
4.8708115136555e-05

>  <r_j_Lowest_Frequency_(cm-1)> (1)
97.0510431356364

>  <r_j_Highest_Frequency_(cm-1)> (1)
3136.70061653736

>  <r_j_2nd_Lowest_Frequency_(cm-1)> (1)
172.142248325847

>  <i_j_Num_Negative_Frequencies> (1)
0

>  <r_j_Zero_Point_Energy_(kcal/mol)> (1)
63.5947868003379

>  <r_j_Entropy_(cal/mol/K)_298.15K_1.00E+00atm> (1)
82.5637404895141

>  <r_j_Enthalpy_(kcal/mol)_298.15K_1.00E+00atm> (1)
4.8336278711661

>  <r_j_Free_Energy_(kcal/mol)_298.15K_1.00E+00atm> (1)
-19.7827513557825

>  <r_j_Internal_Energy_(kcal/mol)_298.15K_1.00E+00atm> (1)
4.24114228233882

>  <r_j_Heat_Capacity_(cal/mol/K)_298.15K_1.00E+00atm> (1)
25.7975569447551

>  <r_j_ln(Q)_298.15K_1.00E+00atm> (1)
33.3894220025489

>  <r_j_Total_Internal_Energy_(au)_298.15K_1.00E+00atm> (1)
-420.308427902175

>  <r_j_Total_Enthalpy_(au)_298.15K_1.00E+00atm> (1)
-420.307483716283

>  <r_j_Total_Free_Energy_(au)_298.15K_1.00E+00atm> (1)
-420.346712413862

>  <r_epik_Ionization_Penalty> (1)
  0.0008

>  <r_epik_Ionization_Penalty_Charging> (1)
  0.0008

>  <r_epik_Ionization_Penalty_Neutral> (1)
  0.0000

>  <r_epik_State_Penalty> (1)
  0.0005

>  <r_epik_Charging_Adjusted_Penalty> (1)
0.00137496

>  <i_epik_Tot_Q> (1)
-1

>  <i_epik_Tot_abs_Q> (1)
1

>  <s_lp_Force_Field> (1)
S-OPLS

>  <r_lp_Energy> (1)
17.74

>  <b_lp_Chiralities_Consistent> (1)
1

$$$$
