24408_Bromine
                    3D
 Schrodinger Suite 2021-3.
  2  1  0  0  1  0            999 V2000
    1.3350    0.0000    0.0000 Br  0  0  0  0  0  0
    3.6650    0.0000    0.0000 Br  0  0  0  0  0  0
  1  2  1  0  0  0
M  END
>  <i_m_Spin_multiplicity> (1)
1

>  <s_j_Task> (1)
Single Point

>  <s_j_QM_Method> (1)
DFT(b3lyp-d3)

>  <s_j_QM_Basis> (1)
cc-pvtz(-f)

>  <i_j_Number_of_canonical_orbitals> (1)
72

>  <r_j_Gas_Phase_Energy> (1)
-5148.44739451679

>  <r_j_Final_Energy> (1)
-5148.44739451679

>  <r_j_Polarizability> (1)
35.965020766741

>  <r_j_QM_Dipole_(debye)> (1)
3.46968470266078e-05

>  <r_j_QM_Dipole_X_(debye)> (1)
2.95157624879415e-05

>  <r_j_QM_Dipole_Y_(debye)> (1)
2.03220154149164e-06

>  <r_j_QM_Dipole_Z_(debye)> (1)
-1.81262548596781e-05

>  <r_j_HOMO> (1)
-0.290756450557986

>  <r_j_LUMO> (1)
-0.152792327189227

>  <r_j_Lowest_Frequency_(cm-1)> (1)
-1951.37459734956

>  <r_j_Highest_Frequency_(cm-1)> (1)
-1951.37459734956

>  <r_j_2nd_Lowest_Frequency_(cm-1)> (1)
-1951.37459734956

>  <i_j_Num_Negative_Frequencies> (1)
1

>  <i_j_Geometry_convergence_category> (1)
3

$$$$
