244872_Docosanedioic acid
                    3D
 Schrodinger Suite 2021-3.
 66 65  0  0  1  0            999 V2000
    0.2989    0.2396    0.7734 C   0  0  0  0  0  0
    1.8078    0.0727    0.9902 C   0  0  0  0  0  0
    2.2855   -1.3809    0.8838 C   0  0  0  0  0  0
    3.7952   -1.5469    1.0961 C   0  0  0  0  0  0
    4.3010   -2.9733    0.8470 C   0  0  0  0  0  0
    5.8124   -3.1296    1.0555 C   0  0  0  0  0  0
    6.3512   -4.5137    0.6738 C   0  0  0  0  0  0
    7.8655   -4.6509    0.8839 C   0  0  0  0  0  0
    8.4626   -5.9629    0.3483 C   0  0  0  0  0  0
    7.9612   -7.2383    1.0382 C   0  0  0  0  0  0
    8.6171   -8.5211    0.5251 C   0  0  0  0  0  0
    7.9624   -9.8475    1.0773 C   0  0  0  0  0  0
    6.7616   -9.7470    1.4421 O   0  0  0  0  0  0
    8.7126  -10.8536    1.0543 O   0  5  0  0  0  0
   -0.1602    1.7025    0.7341 C   0  0  0  0  0  0
   -1.6708    1.8531    0.5095 C   0  0  0  0  0  0
   -2.1666    3.3041    0.3972 C   0  0  0  0  0  0
   -1.6128    4.0692   -0.8138 C   0  0  0  0  0  0
   -2.3041    5.4158   -1.0605 C   0  0  0  0  0  0
   -1.7168    6.1821   -2.2539 C   0  0  0  0  0  0
   -2.5031    7.4439   -2.6460 C   0  0  0  0  0  0
   -2.5552    8.5398   -1.5735 C   0  0  0  0  0  0
   -3.2868    9.8083   -2.0148 C   0  0  0  0  0  0
   -3.5558   10.8368   -0.8471 C   0  0  0  0  0  0
   -3.6995   12.0279   -1.2162 O   0  0  0  0  0  0
   -3.6294   10.3375    0.3064 O   0  5  0  0  0  0
    0.0158   -0.2473   -0.1713 H   0  0  0  0  0  0
   -0.2456   -0.2983    1.5632 H   0  0  0  0  0  0
    2.3473    0.6805    0.2494 H   0  0  0  0  0  0
    2.0841    0.4815    1.9728 H   0  0  0  0  0  0
    1.7428   -2.0026    1.6103 H   0  0  0  0  0  0
    2.0160   -1.7729   -0.1077 H   0  0  0  0  0  0
    4.3299   -0.8570    0.4267 H   0  0  0  0  0  0
    4.0565   -1.2361    2.1181 H   0  0  0  0  0  0
    3.7663   -3.6760    1.5016 H   0  0  0  0  0  0
    4.0465   -3.2679   -0.1815 H   0  0  0  0  0  0
    6.3366   -2.3638    0.4637 H   0  0  0  0  0  0
    6.0581   -2.9158    2.1062 H   0  0  0  0  0  0
    5.8268   -5.2871    1.2476 H   0  0  0  0  0  0
    6.1161   -4.7112   -0.3826 H   0  0  0  0  0  0
    8.3650   -3.7971    0.3997 H   0  0  0  0  0  0
    8.0867   -4.5621    1.9582 H   0  0  0  0  0  0
    8.2579   -6.0309   -0.7317 H   0  0  0  0  0  0
    9.5578   -5.9109    0.4392 H   0  0  0  0  0  0
    8.1281   -7.1507    2.1227 H   0  0  0  0  0  0
    6.8798   -7.3648    0.9191 H   0  0  0  0  0  0
    8.5377   -8.5517   -0.5744 H   0  0  0  0  0  0
    9.6923   -8.5376    0.7497 H   0  0  0  0  0  0
    0.1207    2.2053    1.6710 H   0  0  0  0  0  0
    0.3865    2.2217   -0.0635 H   0  0  0  0  0  0
   -1.9492    1.3118   -0.4070 H   0  0  0  0  0  0
   -2.2017    1.3499    1.3301 H   0  0  0  0  0  0
   -3.2636    3.2950    0.3361 H   0  0  0  0  0  0
   -1.9213    3.8520    1.3180 H   0  0  0  0  0  0
   -0.5346    4.2368   -0.6883 H   0  0  0  0  0  0
   -1.7167    3.4411   -1.7121 H   0  0  0  0  0  0
   -3.3767    5.2437   -1.2346 H   0  0  0  0  0  0
   -2.2425    6.0353   -0.1578 H   0  0  0  0  0  0
   -0.6769    6.4580   -2.0229 H   0  0  0  0  0  0
   -1.6646    5.5005   -3.1174 H   0  0  0  0  0  0
   -2.0627    7.8579   -3.5654 H   0  0  0  0  0  0
   -3.5307    7.1525   -2.9148 H   0  0  0  0  0  0
   -3.0521    8.1903   -0.6622 H   0  0  0  0  0  0
   -1.5283    8.7955   -1.2698 H   0  0  0  0  0  0
   -2.7480   10.3213   -2.8228 H   0  0  0  0  0  0
   -4.2682    9.5293   -2.4338 H   0  0  0  0  0  0
  1  2  1  0  0  0
  1 15  1  0  0  0
  1 27  1  0  0  0
  1 28  1  0  0  0
  2  3  1  0  0  0
  2 29  1  0  0  0
  2 30  1  0  0  0
  3  4  1  0  0  0
  3 31  1  0  0  0
  3 32  1  0  0  0
  4  5  1  0  0  0
  4 33  1  0  0  0
  4 34  1  0  0  0
  5  6  1  0  0  0
  5 35  1  0  0  0
  5 36  1  0  0  0
  6  7  1  0  0  0
  6 37  1  0  0  0
  6 38  1  0  0  0
  7  8  1  0  0  0
  7 39  1  0  0  0
  7 40  1  0  0  0
  8  9  1  0  0  0
  8 41  1  0  0  0
  8 42  1  0  0  0
  9 10  1  0  0  0
  9 43  1  0  0  0
  9 44  1  0  0  0
 10 11  1  0  0  0
 10 45  1  0  0  0
 10 46  1  0  0  0
 11 12  1  0  0  0
 11 47  1  0  0  0
 11 48  1  0  0  0
 12 13  2  0  0  0
 12 14  1  0  0  0
 15 16  1  0  0  0
 15 49  1  0  0  0
 15 50  1  0  0  0
 16 17  1  0  0  0
 16 51  1  0  0  0
 16 52  1  0  0  0
 17 18  1  0  0  0
 17 53  1  0  0  0
 17 54  1  0  0  0
 18 19  1  0  0  0
 18 55  1  0  0  0
 18 56  1  0  0  0
 19 20  1  0  0  0
 19 57  1  0  0  0
 19 58  1  0  0  0
 20 21  1  0  0  0
 20 59  1  0  0  0
 20 60  1  0  0  0
 21 22  1  0  0  0
 21 61  1  0  0  0
 21 62  1  0  0  0
 22 23  1  0  0  0
 22 63  1  0  0  0
 22 64  1  0  0  0
 23 24  1  0  0  0
 23 65  1  0  0  0
 23 66  1  0  0  0
 24 25  2  0  0  0
 24 26  1  0  0  0
M  END
>  <i_m_Spin_multiplicity> (1)
1

>  <s_j_Task> (1)
Single Point

>  <s_j_QM_Method> (1)
DFT(b3lyp-d3)

>  <s_j_QM_Basis> (1)
cc-pvtz(-f)

>  <i_j_Number_of_canonical_orbitals> (1)
951

>  <i_j_Geometry_convergence_category> (1)
3

>  <r_j_Gas_Phase_Energy> (1)
-1163.91365378104

>  <r_j_Final_Energy> (1)
-1163.91365378104

>  <r_j_HOMO> (1)
0.057704214964265

>  <r_j_LUMO> (1)
0.118494085637343

>  <r_j_Polarizability> (1)
293.079566744367

>  <r_j_QM_Dipole_(debye)> (1)
2.33326684873342

>  <r_j_QM_Dipole_X_(debye)> (1)
-0.869120194311503

>  <r_j_QM_Dipole_Y_(debye)> (1)
-0.118673733065965

>  <r_j_QM_Dipole_Z_(debye)> (1)
-2.16210101991523

>  <r_j_Lowest_Frequency_(cm-1)> (1)
15.7243075599169

>  <r_j_Highest_Frequency_(cm-1)> (1)
3032.3949022489

>  <r_j_2nd_Lowest_Frequency_(cm-1)> (1)
24.5352080029942

>  <i_j_Num_Negative_Frequencies> (1)
0

>  <r_j_Zero_Point_Energy_(kcal/mol)> (1)
370.587712991272

>  <r_j_Entropy_(cal/mol/K)_298.15K_1.00E+00atm> (1)
186.595574183408

>  <r_j_Enthalpy_(kcal/mol)_298.15K_1.00E+00atm> (1)
18.9963121119624

>  <r_j_Free_Energy_(kcal/mol)_298.15K_1.00E+00atm> (1)
-36.6371583308208

>  <r_j_Internal_Energy_(kcal/mol)_298.15K_1.00E+00atm> (1)
18.4038265231351

>  <r_j_Heat_Capacity_(cal/mol/K)_298.15K_1.00E+00atm> (1)
110.997337879054

>  <r_j_ln(Q)_298.15K_1.00E+00atm> (1)
61.8363704057982

>  <r_j_Total_Internal_Energy_(au)_298.15K_1.00E+00atm> (1)
-1163.29375630042

>  <r_j_Total_Enthalpy_(au)_298.15K_1.00E+00atm> (1)
-1163.29281211453

>  <r_j_Total_Free_Energy_(au)_298.15K_1.00E+00atm> (1)
-1163.38146969358

>  <r_epik_Ionization_Penalty> (1)
  0.0097

>  <r_epik_Ionization_Penalty_Charging> (1)
  0.0097

>  <r_epik_Ionization_Penalty_Neutral> (1)
  0.0000

>  <r_epik_State_Penalty> (1)
  0.0074

>  <r_epik_Charging_Adjusted_Penalty> (1)
0.0170681

>  <i_epik_Tot_Q> (1)
-2

>  <i_epik_Tot_abs_Q> (1)
2

>  <s_lp_Force_Field> (1)
S-OPLS

>  <r_lp_Energy> (1)
18.1797

>  <b_lp_Chiralities_Consistent> (1)
1

$$$$
