247581_Methyl dehydroabietate
                    3D
 Schrodinger Suite 2021-3.
 53 55  0  0  1  0            999 V2000
   -0.5937   -1.0023   -1.1421 C   0  0  0  0  0  0
   -0.0610   -0.0664   -0.0415 C   0  0  0  0  0  0
   -0.6755    1.3393   -0.1739 C   0  0  0  0  0  0
    1.4596   -0.0143   -0.0375 C   0  0  0  0  0  0
    2.1968   -0.4567    1.0579 C   0  0  0  0  0  0
    3.5983   -0.4196    1.0923 C   0  0  0  0  0  0
    4.3117    0.0950   -0.0017 C   0  0  0  0  0  0
    3.5648    0.5175   -1.1162 C   0  0  0  0  0  0
    2.1775    0.4696   -1.1398 C   0  0  0  0  0  0
    5.8534    0.1768   -0.0510 C   0  0  0  0  0  0
    6.3459   -0.8354   -1.1277 C   0  0  0  0  0  0
    7.8699   -0.9833   -1.1915 C   0  0  0  0  0  0
    8.4447   -1.3603    0.1772 C   0  0  0  0  0  0
    8.0446   -0.3714    1.2918 C   0  0  0  0  0  0
    6.4874   -0.1690    1.3460 C   0  0  0  0  0  0
    5.7534   -1.3559    1.9944 C   0  0  0  0  0  0
    4.3144   -0.9549    2.3105 C   0  0  0  0  0  0
    8.6030   -0.8766    2.6486 C   0  0  0  0  0  0
    8.7770    0.9600    1.0775 C   0  0  0  0  0  0
    9.6780    1.1565    0.2877 O   0  0  0  0  0  0
    8.3527    1.9087    1.9458 O   0  0  0  0  0  0
    9.0054    3.1832    1.8306 C   0  0  0  0  0  0
    6.2495    1.6184   -0.4596 C   0  0  0  0  0  0
   -0.1807   -2.0101   -1.0375 H   0  0  0  0  0  0
   -0.3227   -0.6323   -2.1371 H   0  0  0  0  0  0
   -1.6864   -1.0715   -1.0992 H   0  0  0  0  0  0
   -0.3771   -0.4774    0.9265 H   0  0  0  0  0  0
   -0.3206    2.0022    0.6210 H   0  0  0  0  0  0
   -1.7689    1.2924   -0.1211 H   0  0  0  0  0  0
   -0.4081    1.7960   -1.1333 H   0  0  0  0  0  0
    1.6693   -0.8588    1.9218 H   0  0  0  0  0  0
    4.0795    0.8923   -1.9953 H   0  0  0  0  0  0
    1.6489    0.8103   -2.0263 H   0  0  0  0  0  0
    5.8982   -1.8147   -0.9167 H   0  0  0  0  0  0
    5.9543   -0.5321   -2.1054 H   0  0  0  0  0  0
    8.1309   -1.7545   -1.9259 H   0  0  0  0  0  0
    8.3389   -0.0569   -1.5365 H   0  0  0  0  0  0
    8.0766   -2.3540    0.4636 H   0  0  0  0  0  0
    9.5360   -1.4221    0.1281 H   0  0  0  0  0  0
    6.3114    0.6912    2.0023 H   0  0  0  0  0  0
    5.7585   -2.2280    1.3304 H   0  0  0  0  0  0
    6.2434   -1.6612    2.9212 H   0  0  0  0  0  0
    4.3222   -0.1899    3.1014 H   0  0  0  0  0  0
    3.7586   -1.8069    2.7195 H   0  0  0  0  0  0
    8.3260   -1.9187    2.8236 H   0  0  0  0  0  0
    8.2364   -0.2677    3.4793 H   0  0  0  0  0  0
    9.6968   -0.8274    2.6447 H   0  0  0  0  0  0
    8.5653    3.8114    2.6052 H   0  0  0  0  0  0
    8.8284    3.6144    0.8413 H   0  0  0  0  0  0
   10.0832    3.0813    1.9807 H   0  0  0  0  0  0
    7.3255    1.7303   -0.5970 H   0  0  0  0  0  0
    5.9253    2.3354    0.3003 H   0  0  0  0  0  0
    5.7881    1.9028   -1.4077 H   0  0  0  0  0  0
  1  2  1  0  0  0
  1 24  1  0  0  0
  1 25  1  0  0  0
  1 26  1  0  0  0
  2  3  1  0  0  0
  2  4  1  0  0  0
  2 27  1  0  0  0
  3 28  1  0  0  0
  3 29  1  0  0  0
  3 30  1  0  0  0
  4  9  1  0  0  0
  4  5  2  0  0  0
  5  6  1  0  0  0
  5 31  1  0  0  0
  6 17  1  0  0  0
  6  7  2  0  0  0
  7  8  1  0  0  0
  7 10  1  0  0  0
  8  9  2  0  0  0
  8 32  1  0  0  0
  9 33  1  0  0  0
 10 15  1  0  0  0
 10 11  1  0  0  0
 10 23  1  0  0  0
 11 12  1  0  0  0
 11 34  1  0  0  0
 11 35  1  0  0  0
 12 13  1  0  0  0
 12 36  1  0  0  0
 12 37  1  0  0  0
 13 14  1  0  0  0
 13 38  1  0  0  0
 13 39  1  0  0  0
 14 15  1  0  0  0
 14 18  1  0  0  0
 14 19  1  0  0  0
 15 16  1  0  0  0
 15 40  1  0  0  0
 16 17  1  0  0  0
 16 41  1  0  0  0
 16 42  1  0  0  0
 17 43  1  0  0  0
 17 44  1  0  0  0
 18 45  1  0  0  0
 18 46  1  0  0  0
 18 47  1  0  0  0
 19 20  2  0  0  0
 19 21  1  0  0  0
 21 22  1  0  0  0
 22 48  1  0  0  0
 22 49  1  0  0  0
 22 50  1  0  0  0
 23 51  1  0  0  0
 23 52  1  0  0  0
 23 53  1  0  0  0
M  END
>  <i_m_Spin_multiplicity> (1)
1

>  <s_j_Task> (1)
Single Point

>  <s_j_QM_Method> (1)
DFT(b3lyp-d3)

>  <s_j_QM_Basis> (1)
cc-pvtz(-f)

>  <i_j_Number_of_canonical_orbitals> (1)
784

>  <i_j_Geometry_convergence_category> (1)
3

>  <r_j_Gas_Phase_Energy> (1)
-969.159446953539

>  <r_j_Final_Energy> (1)
-969.159446953539

>  <r_j_HOMO> (1)
-0.231514075066497

>  <r_j_LUMO> (1)
-0.00944991262583361

>  <r_j_Polarizability> (1)
244.7908263166

>  <r_j_QM_Dipole_(debye)> (1)
1.71376949242173

>  <r_j_QM_Dipole_X_(debye)> (1)
-0.84008693664989

>  <r_j_QM_Dipole_Y_(debye)> (1)
0.180841754077882

>  <r_j_QM_Dipole_Z_(debye)> (1)
1.48275286949906

>  <r_j_Lowest_Frequency_(cm-1)> (1)
46.2475350873775

>  <r_j_Highest_Frequency_(cm-1)> (1)
3137.78176585187

>  <r_j_2nd_Lowest_Frequency_(cm-1)> (1)
73.3247124799375

>  <i_j_Num_Negative_Frequencies> (1)
0

>  <r_j_Zero_Point_Energy_(kcal/mol)> (1)
294.891612443777

>  <r_j_Entropy_(cal/mol/K)_298.15K_1.00E+00atm> (1)
144.365293077945

>  <r_j_Enthalpy_(kcal/mol)_298.15K_1.00E+00atm> (1)
13.9586400008074

>  <r_j_Free_Energy_(kcal/mol)_298.15K_1.00E+00atm> (1)
-29.0838721303819

>  <r_j_Internal_Energy_(kcal/mol)_298.15K_1.00E+00atm> (1)
13.3661544119801

>  <r_j_Heat_Capacity_(cal/mol/K)_298.15K_1.00E+00atm> (1)
89.0475306347105

>  <r_j_ln(Q)_298.15K_1.00E+00atm> (1)
49.0878979654991

>  <r_j_Total_Internal_Energy_(au)_298.15K_1.00E+00atm> (1)
-968.668206929933

>  <r_j_Total_Enthalpy_(au)_298.15K_1.00E+00atm> (1)
-968.66726274404

>  <r_j_Total_Free_Energy_(au)_298.15K_1.00E+00atm> (1)
-968.735855353696

>  <r_lp_tautomer_probability> (1)
1

>  <r_epik_Ionization_Penalty> (1)
  0.0000

>  <r_epik_Ionization_Penalty_Charging> (1)
  0.0000

>  <r_epik_Ionization_Penalty_Neutral> (1)
  0.0000

>  <r_epik_State_Penalty> (1)
  0.0000

>  <r_epik_Charging_Adjusted_Penalty> (1)
0

>  <i_epik_Tot_Q> (1)
0

>  <i_epik_Tot_abs_Q> (1)
0

>  <s_lp_Force_Field> (1)
S-OPLS

>  <r_lp_Energy> (1)
47.092804

>  <b_lp_Chiralities_Consistent> (1)
1

>  <s_epik_Chemistry_Notes> (1)
This compound has an ester and may undergo hydrolysis at high or low pH.

$$$$
