24773_2-[2-(4-Nonylphenoxy)ethoxy]ethanol
                    3D
 Schrodinger Suite 2021-3.
 54 54  0  0  1  0            999 V2000
   -6.9515   -0.6343    3.8277 C   0  0  0  0  0  0
   -6.3630   -0.0970    2.5197 C   0  0  0  0  0  0
   -4.8299   -0.0554    2.5203 C   0  0  0  0  0  0
   -4.2375    0.4869    1.2147 C   0  0  0  0  0  0
   -2.7050    0.5396    1.2088 C   0  0  0  0  0  0
   -2.1312    1.0929   -0.1031 C   0  0  0  0  0  0
   -0.6041    1.2604   -0.1116 C   0  0  0  0  0  0
    0.1787   -0.0571   -0.0468 C   0  0  0  0  0  0
    1.7096    0.1374   -0.1072 C   0  0  0  0  0  0
    2.2604    0.8829    1.0901 C   0  0  0  0  0  0
    2.5988    2.2353    1.0278 C   0  0  0  0  0  0
    3.0530    2.9362    2.1498 C   0  0  0  0  0  0
    3.1738    2.2719    3.3738 C   0  0  0  0  0  0
    2.8429    0.9120    3.4557 C   0  0  0  0  0  0
    2.3941    0.2365    2.3298 C   0  0  0  0  0  0
    3.6057    2.8434    4.5371 O   0  0  0  0  0  0
    3.9141    4.2313    4.5410 C   0  0  0  0  0  0
    4.2940    4.6192    5.9543 C   0  0  0  0  0  0
    3.1313    4.6057    6.7544 O   0  0  0  0  0  0
    3.3921    4.8585    8.1215 C   0  0  0  0  0  0
    2.0748    4.9369    8.8658 C   0  0  0  0  0  0
    1.4338    6.1565    8.5180 O   0  0  0  0  0  0
   -8.0462   -0.6529    3.7996 H   0  0  0  0  0  0
   -6.6502   -0.0137    4.6796 H   0  0  0  0  0  0
   -6.6054   -1.6554    4.0257 H   0  0  0  0  0  0
   -6.7069   -0.7161    1.6798 H   0  0  0  0  0  0
   -6.7509    0.9133    2.3299 H   0  0  0  0  0  0
   -4.4839    0.5623    3.3616 H   0  0  0  0  0  0
   -4.4392   -1.0662    2.7071 H   0  0  0  0  0  0
   -4.5827   -0.1333    0.3747 H   0  0  0  0  0  0
   -4.6352    1.4950    1.0285 H   0  0  0  0  0  0
   -2.3575    1.1624    2.0456 H   0  0  0  0  0  0
   -2.3115   -0.4680    1.3970 H   0  0  0  0  0  0
   -2.4335    0.4399   -0.9349 H   0  0  0  0  0  0
   -2.5937    2.0692   -0.3024 H   0  0  0  0  0  0
   -0.3090    1.7968   -1.0244 H   0  0  0  0  0  0
   -0.3039    1.9017    0.7271 H   0  0  0  0  0  0
   -0.0685   -0.5959    0.8764 H   0  0  0  0  0  0
   -0.1324   -0.7049   -0.8780 H   0  0  0  0  0  0
    2.1883   -0.8477   -0.1765 H   0  0  0  0  0  0
    1.9681    0.6739   -1.0290 H   0  0  0  0  0  0
    2.5061    2.7640    0.0822 H   0  0  0  0  0  0
    3.3045    3.9859    2.0556 H   0  0  0  0  0  0
    2.9473    0.4122    4.4133 H   0  0  0  0  0  0
    2.1392   -0.8179    2.4102 H   0  0  0  0  0  0
    4.7529    4.4427    3.8611 H   0  0  0  0  0  0
    3.0463    4.8245    4.2221 H   0  0  0  0  0  0
    5.0500    3.9110    6.3328 H   0  0  0  0  0  0
    4.7519    5.6235    5.9402 H   0  0  0  0  0  0
    4.0106    4.0535    8.5554 H   0  0  0  0  0  0
    3.9357    5.8091    8.2533 H   0  0  0  0  0  0
    1.4705    4.0592    8.5907 H   0  0  0  0  0  0
    2.2820    4.8806    9.9480 H   0  0  0  0  0  0
    0.5277    6.1236    8.8481 H   0  0  0  0  0  0
  1  2  1  0  0  0
  1 23  1  0  0  0
  1 24  1  0  0  0
  1 25  1  0  0  0
  2  3  1  0  0  0
  2 26  1  0  0  0
  2 27  1  0  0  0
  3  4  1  0  0  0
  3 28  1  0  0  0
  3 29  1  0  0  0
  4  5  1  0  0  0
  4 30  1  0  0  0
  4 31  1  0  0  0
  5  6  1  0  0  0
  5 32  1  0  0  0
  5 33  1  0  0  0
  6  7  1  0  0  0
  6 34  1  0  0  0
  6 35  1  0  0  0
  7  8  1  0  0  0
  7 36  1  0  0  0
  7 37  1  0  0  0
  8  9  1  0  0  0
  8 38  1  0  0  0
  8 39  1  0  0  0
  9 10  1  0  0  0
  9 40  1  0  0  0
  9 41  1  0  0  0
 10 15  1  0  0  0
 10 11  2  0  0  0
 11 12  1  0  0  0
 11 42  1  0  0  0
 12 13  2  0  0  0
 12 43  1  0  0  0
 13 14  1  0  0  0
 13 16  1  0  0  0
 14 15  2  0  0  0
 14 44  1  0  0  0
 15 45  1  0  0  0
 16 17  1  0  0  0
 17 18  1  0  0  0
 17 46  1  0  0  0
 17 47  1  0  0  0
 18 19  1  0  0  0
 18 48  1  0  0  0
 18 49  1  0  0  0
 19 20  1  0  0  0
 20 21  1  0  0  0
 20 50  1  0  0  0
 20 51  1  0  0  0
 21 22  1  0  0  0
 21 52  1  0  0  0
 21 53  1  0  0  0
 22 54  1  0  0  0
M  END
>  <i_m_Spin_multiplicity> (1)
1

>  <s_j_Task> (1)
Single Point

>  <s_j_QM_Method> (1)
DFT(b3lyp-d3)

>  <s_j_QM_Basis> (1)
cc-pvtz(-f)

>  <i_j_Number_of_canonical_orbitals> (1)
785

>  <i_j_Geometry_convergence_category> (1)
0

>  <r_j_Gas_Phase_Energy> (1)
-969.327797184786

>  <r_j_Final_Energy> (1)
-969.327797184786

>  <r_j_HOMO> (1)
-0.218550725262539

>  <r_j_LUMO> (1)
-0.0136386491647743

>  <r_j_Polarizability> (1)
242.54375919711

>  <r_j_QM_Dipole_(debye)> (1)
1.09776375911847

>  <r_j_QM_Dipole_X_(debye)> (1)
0.282433205312726

>  <r_j_QM_Dipole_Y_(debye)> (1)
0.272721756196635

>  <r_j_QM_Dipole_Z_(debye)> (1)
1.02515345147334

>  <r_j_Lowest_Frequency_(cm-1)> (1)
18.7579568246926

>  <r_j_Highest_Frequency_(cm-1)> (1)
3780.86294748824

>  <r_j_2nd_Lowest_Frequency_(cm-1)> (1)
31.4675998417363

>  <i_j_Num_Negative_Frequencies> (1)
0

>  <r_j_Zero_Point_Energy_(kcal/mol)> (1)
302.938191776083

>  <r_j_Entropy_(cal/mol/K)_298.15K_1.00E+00atm> (1)
159.352356047325

>  <r_j_Enthalpy_(kcal/mol)_298.15K_1.00E+00atm> (1)
15.2955347009943

>  <r_j_Free_Energy_(kcal/mol)_298.15K_1.00E+00atm> (1)
-32.2153702545157

>  <r_j_Internal_Energy_(kcal/mol)_298.15K_1.00E+00atm> (1)
14.703049112167

>  <r_j_Heat_Capacity_(cal/mol/K)_298.15K_1.00E+00atm> (1)
90.6526675358174

>  <r_j_ln(Q)_298.15K_1.00E+00atm> (1)
54.3732554209134

>  <r_j_Total_Internal_Energy_(au)_298.15K_1.00E+00atm> (1)
-968.821603643375

>  <r_j_Total_Enthalpy_(au)_298.15K_1.00E+00atm> (1)
-968.820659457482

>  <r_j_Total_Free_Energy_(au)_298.15K_1.00E+00atm> (1)
-968.896372904413

>  <r_lp_tautomer_probability> (1)
1

>  <r_epik_Ionization_Penalty> (1)
  0.0000

>  <r_epik_Ionization_Penalty_Charging> (1)
  0.0000

>  <r_epik_Ionization_Penalty_Neutral> (1)
  0.0000

>  <r_epik_State_Penalty> (1)
  0.0000

>  <r_epik_Charging_Adjusted_Penalty> (1)
0

>  <i_epik_Tot_Q> (1)
0

>  <i_epik_Tot_abs_Q> (1)
0

>  <s_lp_Force_Field> (1)
S-OPLS

>  <r_lp_Energy> (1)
19.5322

>  <b_lp_Chiralities_Consistent> (1)
1

$$$$
