24841_Hydrogen iodide
                    3D
 Schrodinger Suite 2021-3.
  2  1  0  0  1  0            999 V2000
    0.0000    0.0000   -0.0127 I   0  0  0  0  0  0
    0.0000    0.0000    1.5969 H   0  0  0  0  0  0
  1  2  1  0  0  0
M  END
>  <i_m_Spin_multiplicity> (1)
1

>  <s_j_Task> (1)
Single Point

>  <s_j_QM_Method> (1)
DFT(b3lyp-d3)

>  <s_j_QM_Basis> (1)
lacv3p**

>  <i_j_Number_of_canonical_orbitals> (1)
15

>  <r_j_Gas_Phase_Energy> (1)
-11.9879426702161

>  <r_j_Final_Energy> (1)
-11.9879426702161

>  <r_j_Polarizability> (1)
12.8672518417984

>  <r_j_QM_Dipole_(debye)> (1)
0.876377402674763

>  <r_j_QM_Dipole_X_(debye)> (1)
0

>  <r_j_QM_Dipole_Y_(debye)> (1)
0

>  <r_j_QM_Dipole_Z_(debye)> (1)
0.876377402674763

>  <r_j_Zero_Point_Energy_(kcal/mol)> (1)
3.28709513477135

>  <r_j_Entropy_(cal/mol/K)_298.15K_1.00E+00atm> (1)
49.3167137986313

>  <r_j_Enthalpy_(kcal/mol)_298.15K_1.00E+00atm> (1)
2.07379931692632

>  <r_j_Free_Energy_(kcal/mol)_298.15K_1.00E+00atm> (1)
-12.6299789021356

>  <r_j_Internal_Energy_(kcal/mol)_298.15K_1.00E+00atm> (1)
1.48131372809905

>  <r_j_Heat_Capacity_(cal/mol/K)_298.15K_1.00E+00atm> (1)
4.97172858211645

>  <r_j_ln(Q)_298.15K_1.00E+00atm> (1)
21.3169385725221

>  <r_j_Total_Internal_Energy_(au)_298.15K_1.00E+00atm> (1)
-11.9803437269477

>  <r_j_Total_Enthalpy_(au)_298.15K_1.00E+00atm> (1)
-11.9793995410555

>  <r_j_Total_Free_Energy_(au)_298.15K_1.00E+00atm> (1)
-12.0028315033158

>  <r_j_HOMO> (1)
-0.28086658976658

>  <r_j_LUMO> (1)
-0.0343964264008702

>  <r_j_Lowest_Frequency_(cm-1)> (1)
2299.35650910628

>  <r_j_Highest_Frequency_(cm-1)> (1)
2299.35650910628

>  <r_j_2nd_Lowest_Frequency_(cm-1)> (1)
2299.35650910628

>  <i_j_Num_Negative_Frequencies> (1)
0

>  <i_j_Geometry_convergence_category> (1)
0

$$$$
