2537_Camphor
                    3D
 Schrodinger Suite 2021-3.
 27 28  0  0  1  0            999 V2000
   -0.0616    0.0505    0.0286 C   0  0  0  0  0  0
    1.4746    0.0255    0.0165 C   0  0  0  0  0  0
    2.1038    0.3934   -1.3687 C   0  0  0  0  0  0
    1.5983   -0.7463   -2.2870 C   0  0  0  0  0  0
    1.6328   -1.9892   -1.3438 C   0  0  0  0  0  0
    2.0963   -1.4138    0.0356 C   0  0  0  0  0  0
    3.5760   -1.0842   -0.2015 C   0  0  0  0  0  0
    4.5313   -1.6775    0.2492 O   0  0  0  0  0  0
    3.6080    0.1380   -1.1355 C   0  0  0  0  0  0
    1.8480   -2.3138    1.2292 C   0  0  0  0  0  0
    1.9577    0.9099    1.1809 C   0  0  0  0  0  0
   -0.4196    1.0766   -0.1129 H   0  0  0  0  0  0
   -0.4410   -0.2997    0.9943 H   0  0  0  0  0  0
   -0.5197   -0.5668   -0.7461 H   0  0  0  0  0  0
    1.8686    1.3999   -1.7263 H   0  0  0  0  0  0
    0.5885   -0.5483   -2.6556 H   0  0  0  0  0  0
    2.2390   -0.8692   -3.1655 H   0  0  0  0  0  0
    0.6455   -2.4479   -1.2330 H   0  0  0  0  0  0
    2.3089   -2.7753   -1.6939 H   0  0  0  0  0  0
    4.1706   -0.0859   -2.0475 H   0  0  0  0  0  0
    4.1206    0.9670   -0.6379 H   0  0  0  0  0  0
    0.7865   -2.5658    1.3202 H   0  0  0  0  0  0
    2.1715   -1.8343    2.1581 H   0  0  0  0  0  0
    2.4190   -3.2414    1.1280 H   0  0  0  0  0  0
    3.0395    0.8829    1.3339 H   0  0  0  0  0  0
    1.4954    0.5882    2.1197 H   0  0  0  0  0  0
    1.6698    1.9534    1.0128 H   0  0  0  0  0  0
  1  2  1  0  0  0
  1 12  1  0  0  0
  1 13  1  0  0  0
  1 14  1  0  0  0
  2  6  1  0  0  0
  2  3  1  0  0  0
  2 11  1  0  0  0
  3  9  1  0  0  0
  3  4  1  0  0  0
  3 15  1  0  0  0
  4  5  1  0  0  0
  4 16  1  0  0  0
  4 17  1  0  0  0
  5  6  1  0  0  0
  5 18  1  0  0  0
  5 19  1  0  0  0
  6  7  1  0  0  0
  6 10  1  0  0  0
  7  8  2  0  0  0
  7  9  1  0  0  0
  9 20  1  0  0  0
  9 21  1  0  0  0
 10 22  1  0  0  0
 10 23  1  0  0  0
 10 24  1  0  0  0
 11 25  1  0  0  0
 11 26  1  0  0  0
 11 27  1  0  0  0
M  END
>  <i_m_Spin_multiplicity> (1)
1

>  <s_j_Task> (1)
Single Point

>  <s_j_QM_Method> (1)
DFT(b3lyp-d3)

>  <s_j_QM_Basis> (1)
cc-pvtz(-f)

>  <i_j_Number_of_canonical_orbitals> (1)
392

>  <i_j_Geometry_convergence_category> (1)
3

>  <r_j_Gas_Phase_Energy> (1)
-466.104798752736

>  <r_j_Final_Energy> (1)
-466.104798752736

>  <r_j_HOMO> (1)
-0.243999273472815

>  <r_j_LUMO> (1)
-0.023287233138535

>  <r_j_Polarizability> (1)
110.379669250858

>  <r_j_QM_Dipole_(debye)> (1)
3.09097215032161

>  <r_j_QM_Dipole_X_(debye)> (1)
-2.51789832685833

>  <r_j_QM_Dipole_Y_(debye)> (1)
1.43502419742037

>  <r_j_QM_Dipole_Z_(debye)> (1)
-1.07471038074725

>  <r_j_Lowest_Frequency_(cm-1)> (1)
129.095185099636

>  <r_j_Highest_Frequency_(cm-1)> (1)
3080.11128916668

>  <r_j_2nd_Lowest_Frequency_(cm-1)> (1)
215.930829671551

>  <i_j_Num_Negative_Frequencies> (1)
0

>  <r_j_Zero_Point_Energy_(kcal/mol)> (1)
150.77743810532

>  <r_j_Entropy_(cal/mol/K)_298.15K_1.00E+00atm> (1)
94.6234234397038

>  <r_j_Enthalpy_(kcal/mol)_298.15K_1.00E+00atm> (1)
6.9583788184427

>  <r_j_Free_Energy_(kcal/mol)_298.15K_1.00E+00atm> (1)
-21.253594880105

>  <r_j_Internal_Energy_(kcal/mol)_298.15K_1.00E+00atm> (1)
6.36589322961543

>  <r_j_Heat_Capacity_(cal/mol/K)_298.15K_1.00E+00atm> (1)
42.889837265168

>  <r_j_ln(Q)_298.15K_1.00E+00atm> (1)
35.8719187114287

>  <r_j_Total_Internal_Energy_(au)_298.15K_1.00E+00atm> (1)
-465.854374912383

>  <r_j_Total_Enthalpy_(au)_298.15K_1.00E+00atm> (1)
-465.853430726491

>  <r_j_Total_Free_Energy_(au)_298.15K_1.00E+00atm> (1)
-465.898389368627

>  <r_lp_tautomer_probability> (1)
1

>  <r_epik_Ionization_Penalty> (1)
  0.0000

>  <r_epik_Ionization_Penalty_Charging> (1)
  0.0000

>  <r_epik_Ionization_Penalty_Neutral> (1)
  0.0000

>  <r_epik_State_Penalty> (1)
  0.0000

>  <r_epik_Charging_Adjusted_Penalty> (1)
0

>  <i_epik_Tot_Q> (1)
0

>  <i_epik_Tot_abs_Q> (1)
0

>  <s_lp_Force_Field> (1)
S-OPLS

>  <r_lp_Energy> (1)
26.92795

>  <b_lp_Chiralities_Consistent> (1)
1

$$$$
