25403_2,3-dimethyl-2-pentene
                    3D
 Schrodinger Suite 2021-3.
 21 20  0  0  1  0            999 V2000
   -0.4843    1.5993    0.0713 C   0  0  0  0  0  0
   -0.0065    0.1439   -0.0737 C   0  0  0  0  0  0
    1.5100    0.0230   -0.0257 C   0  0  0  0  0  0
    2.1970   -0.1052    1.1269 C   0  0  0  0  0  0
    3.7018   -0.2193    1.2220 C   0  0  0  0  0  0
    1.5384   -0.1422    2.4890 C   0  0  0  0  0  0
    2.1431    0.1071   -1.3966 C   0  0  0  0  0  0
   -1.5723    1.6755   -0.0298 H   0  0  0  0  0  0
   -0.0303    2.2402   -0.6923 H   0  0  0  0  0  0
   -0.2022    2.0036    1.0487 H   0  0  0  0  0  0
   -0.4802   -0.4732    0.6964 H   0  0  0  0  0  0
   -0.3625   -0.2527   -1.0331 H   0  0  0  0  0  0
    4.1174    0.6154    1.8028 H   0  0  0  0  0  0
    4.2098   -0.2392    0.2575 H   0  0  0  0  0  0
    3.9798   -1.1357    1.7599 H   0  0  0  0  0  0
    1.9365    0.6605    3.1241 H   0  0  0  0  0  0
    1.7668   -1.0841    3.0062 H   0  0  0  0  0  0
    0.4542   -0.0295    2.4618 H   0  0  0  0  0  0
    1.8840   -0.7759   -1.9964 H   0  0  0  0  0  0
    3.2299    0.1951   -1.3845 H   0  0  0  0  0  0
    1.7499    0.9751   -1.9418 H   0  0  0  0  0  0
  1  2  1  0  0  0
  1  8  1  0  0  0
  1  9  1  0  0  0
  1 10  1  0  0  0
  2  3  1  0  0  0
  2 11  1  0  0  0
  2 12  1  0  0  0
  3  4  2  0  0  0
  3  7  1  0  0  0
  4  5  1  0  0  0
  4  6  1  0  0  0
  5 13  1  0  0  0
  5 14  1  0  0  0
  5 15  1  0  0  0
  6 16  1  0  0  0
  6 17  1  0  0  0
  6 18  1  0  0  0
  7 19  1  0  0  0
  7 20  1  0  0  0
  7 21  1  0  0  0
M  END
>  <i_m_Spin_multiplicity> (1)
1

>  <s_j_Task> (1)
Single Point

>  <s_j_QM_Method> (1)
DFT(b3lyp-d3)

>  <s_j_QM_Basis> (1)
cc-pvtz(-f)

>  <i_j_Number_of_canonical_orbitals> (1)
284

>  <i_j_Geometry_convergence_category> (1)
3

>  <r_j_Gas_Phase_Energy> (1)
-275.279407687026

>  <r_j_Final_Energy> (1)
-275.279407687026

>  <r_j_HOMO> (1)
-0.227244177288337

>  <r_j_LUMO> (1)
0.0166697568986413

>  <r_j_Polarizability> (1)
87.2451728825257

>  <r_j_QM_Dipole_(debye)> (1)
0.00736997299307784

>  <r_j_QM_Dipole_X_(debye)> (1)
-0.00145003620095688

>  <r_j_QM_Dipole_Y_(debye)> (1)
-0.00565233743203943

>  <r_j_QM_Dipole_Z_(debye)> (1)
0.00450166396890941

>  <r_j_Lowest_Frequency_(cm-1)> (1)
112.869398760963

>  <r_j_Highest_Frequency_(cm-1)> (1)
3097.22971111875

>  <r_j_2nd_Lowest_Frequency_(cm-1)> (1)
141.309237938823

>  <i_j_Num_Negative_Frequencies> (1)
0

>  <r_j_Zero_Point_Energy_(kcal/mol)> (1)
120.700047315286

>  <r_j_Entropy_(cal/mol/K)_298.15K_1.00E+00atm> (1)
89.0420444639037

>  <r_j_Enthalpy_(kcal/mol)_298.15K_1.00E+00atm> (1)
6.18852344928846

>  <r_j_Free_Energy_(kcal/mol)_298.15K_1.00E+00atm> (1)
-20.3593621076244

>  <r_j_Internal_Energy_(kcal/mol)_298.15K_1.00E+00atm> (1)
5.59603786046119

>  <r_j_Heat_Capacity_(cal/mol/K)_298.15K_1.00E+00atm> (1)
33.4482924333441

>  <r_j_ln(Q)_298.15K_1.00E+00atm> (1)
34.3626283770418

>  <r_j_Total_Internal_Energy_(au)_298.15K_1.00E+00atm> (1)
-275.078142062818

>  <r_j_Total_Enthalpy_(au)_298.15K_1.00E+00atm> (1)
-275.077197876926

>  <r_j_Total_Free_Energy_(au)_298.15K_1.00E+00atm> (1)
-275.11950462579

>  <r_lp_tautomer_probability> (1)
1

>  <r_epik_Ionization_Penalty> (1)
  0.0000

>  <r_epik_Ionization_Penalty_Charging> (1)
  0.0000

>  <r_epik_Ionization_Penalty_Neutral> (1)
  0.0000

>  <r_epik_State_Penalty> (1)
  0.0000

>  <r_epik_Charging_Adjusted_Penalty> (1)
0

>  <i_epik_Tot_Q> (1)
0

>  <i_epik_Tot_abs_Q> (1)
0

>  <s_lp_Force_Field> (1)
S-OPLS

>  <r_lp_Energy> (1)
-0.148137

>  <b_lp_Chiralities_Consistent> (1)
1

$$$$
