26049_3-Carene
                    3D
 Schrodinger Suite 2021-3.
 26 27  0  0  1  0            999 V2000
   -0.0022    0.0146   -0.0857 C   0  0  0  0  0  0
    1.5039    0.0075   -0.0302 C   0  0  0  0  0  0
    2.2003   -1.1448    0.0853 C   0  0  0  0  0  0
    3.7270   -1.2690    0.2154 C   0  0  0  0  0  0
    4.1616    0.1373    0.5556 C   0  0  0  0  0  0
    3.6098    1.0758   -0.4994 C   0  0  0  0  0  0
    2.1744    1.3945   -0.1561 C   0  0  0  0  0  0
    5.0227    1.2692    0.0234 C   0  0  0  0  0  0
    5.3440    2.3757    1.0117 C   0  0  0  0  0  0
    6.1372    0.9979   -0.9710 C   0  0  0  0  0  0
   -0.4190    0.6462    0.7103 H   0  0  0  0  0  0
   -0.4258   -0.9881    0.0224 H   0  0  0  0  0  0
   -0.3600    0.4357   -1.0347 H   0  0  0  0  0  0
    1.6369   -2.0764    0.1332 H   0  0  0  0  0  0
    3.9733   -2.0079    0.9907 H   0  0  0  0  0  0
    4.1694   -1.6384   -0.7202 H   0  0  0  0  0  0
    3.7815    0.4011    1.5446 H   0  0  0  0  0  0
    3.6476    0.6123   -1.4873 H   0  0  0  0  0  0
    1.6533    1.9815   -0.9262 H   0  0  0  0  0  0
    2.0697    1.9531    0.7845 H   0  0  0  0  0  0
    5.5771    3.3051    0.4794 H   0  0  0  0  0  0
    6.2122    2.1119    1.6270 H   0  0  0  0  0  0
    4.5031    2.5766    1.6825 H   0  0  0  0  0  0
    6.3333    1.8802   -1.5915 H   0  0  0  0  0  0
    5.8923    0.1644   -1.6364 H   0  0  0  0  0  0
    7.0635    0.7434   -0.4432 H   0  0  0  0  0  0
  1  2  1  0  0  0
  1 11  1  0  0  0
  1 12  1  0  0  0
  1 13  1  0  0  0
  2  7  1  0  0  0
  2  3  2  0  0  0
  3  4  1  0  0  0
  3 14  1  0  0  0
  4  5  1  0  0  0
  4 15  1  0  0  0
  4 16  1  0  0  0
  5  8  1  0  0  0
  5  6  1  0  0  0
  5 17  1  0  0  0
  6  7  1  0  0  0
  6  8  1  0  0  0
  6 18  1  0  0  0
  7 19  1  0  0  0
  7 20  1  0  0  0
  8  9  1  0  0  0
  8 10  1  0  0  0
  9 21  1  0  0  0
  9 22  1  0  0  0
  9 23  1  0  0  0
 10 24  1  0  0  0
 10 25  1  0  0  0
 10 26  1  0  0  0
M  END
>  <i_m_Spin_multiplicity> (1)
1

>  <s_j_Task> (1)
Single Point

>  <s_j_QM_Method> (1)
DFT(b3lyp-d3)

>  <s_j_QM_Basis> (1)
cc-pvtz(-f)

>  <i_j_Number_of_canonical_orbitals> (1)
369

>  <i_j_Geometry_convergence_category> (1)
0

>  <r_j_Gas_Phase_Energy> (1)
-390.772810922931

>  <r_j_Final_Energy> (1)
-390.772810922931

>  <r_j_HOMO> (1)
-0.233395632774303

>  <r_j_LUMO> (1)
0.0154283474407157

>  <r_j_Polarizability> (1)
114.958971726147

>  <r_j_QM_Dipole_(debye)> (1)
0.178094256289234

>  <r_j_QM_Dipole_X_(debye)> (1)
-0.0556275606510446

>  <r_j_QM_Dipole_Y_(debye)> (1)
0.169182939157596

>  <r_j_QM_Dipole_Z_(debye)> (1)
0.00052126502583254

>  <r_j_Lowest_Frequency_(cm-1)> (1)
118.365363402382

>  <r_j_Highest_Frequency_(cm-1)> (1)
3086.67110846231

>  <r_j_2nd_Lowest_Frequency_(cm-1)> (1)
177.562306316036

>  <i_j_Num_Negative_Frequencies> (1)
0

>  <r_j_Zero_Point_Energy_(kcal/mol)> (1)
146.800345316547

>  <r_j_Entropy_(cal/mol/K)_298.15K_1.00E+00atm> (1)
93.8572681657314

>  <r_j_Enthalpy_(kcal/mol)_298.15K_1.00E+00atm> (1)
6.77118533791715

>  <r_j_Free_Energy_(kcal/mol)_298.15K_1.00E+00atm> (1)
-21.2123591656957

>  <r_j_Internal_Energy_(kcal/mol)_298.15K_1.00E+00atm> (1)
6.17869974908988

>  <r_j_Heat_Capacity_(cal/mol/K)_298.15K_1.00E+00atm> (1)
40.5001443842718

>  <r_j_ln(Q)_298.15K_1.00E+00atm> (1)
35.8023208761617

>  <r_j_Total_Internal_Energy_(au)_298.15K_1.00E+00atm> (1)
-390.529023295207

>  <r_j_Total_Enthalpy_(au)_298.15K_1.00E+00atm> (1)
-390.528079109315

>  <r_j_Total_Free_Energy_(au)_298.15K_1.00E+00atm> (1)
-390.572673726355

>  <r_lp_tautomer_probability> (1)
1

>  <r_epik_Ionization_Penalty> (1)
  0.0000

>  <r_epik_Ionization_Penalty_Charging> (1)
  0.0000

>  <r_epik_Ionization_Penalty_Neutral> (1)
  0.0000

>  <r_epik_State_Penalty> (1)
  0.0000

>  <r_epik_Charging_Adjusted_Penalty> (1)
0

>  <i_epik_Tot_Q> (1)
0

>  <i_epik_Tot_abs_Q> (1)
0

>  <s_lp_Force_Field> (1)
S-OPLS

>  <r_lp_Energy> (1)
34.8765

>  <b_lp_Chiralities_Consistent> (1)
1

$$$$
