261_Butyraldehyde
                    3D
 Schrodinger Suite 2021-3.
 13 12  0  0  1  0            999 V2000
   -0.5586    1.4529    0.0244 C   0  0  0  0  0  0
   -0.0244    0.0181    0.0065 C   0  0  0  0  0  0
    1.5114   -0.0334   -0.1012 C   0  0  0  0  0  0
    2.0332   -1.4494   -0.0316 C   0  0  0  0  0  0
    2.7144   -1.9798   -0.8809 O   0  0  0  0  0  0
   -1.6507    1.4683    0.0948 H   0  0  0  0  0  0
   -0.2734    1.9904   -0.8865 H   0  0  0  0  0  0
   -0.1585    2.0110    0.8784 H   0  0  0  0  0  0
   -0.3435   -0.5072    0.9164 H   0  0  0  0  0  0
   -0.4616   -0.5311   -0.8366 H   0  0  0  0  0  0
    1.8637    0.4220   -1.0320 H   0  0  0  0  0  0
    1.9475    0.5266    0.7399 H   0  0  0  0  0  0
    1.7301   -2.0083    0.8862 H   0  0  0  0  0  0
  1  2  1  0  0  0
  1  6  1  0  0  0
  1  7  1  0  0  0
  1  8  1  0  0  0
  2  3  1  0  0  0
  2  9  1  0  0  0
  2 10  1  0  0  0
  3  4  1  0  0  0
  3 11  1  0  0  0
  3 12  1  0  0  0
  4  5  2  0  0  0
  4 13  1  0  0  0
M  END
>  <i_m_Spin_multiplicity> (1)
1

>  <s_j_Task> (1)
Single Point

>  <s_j_QM_Method> (1)
DFT(b3lyp-d3)

>  <s_j_QM_Basis> (1)
cc-pvtz(-f)

>  <i_j_Number_of_canonical_orbitals> (1)
185

>  <i_j_Geometry_convergence_category> (1)
3

>  <r_j_Gas_Phase_Energy> (1)
-232.549195275426

>  <r_j_Final_Energy> (1)
-232.549195275426

>  <r_j_HOMO> (1)
-0.26506574790301

>  <r_j_LUMO> (1)
-0.0400898262300083

>  <r_j_Polarizability> (1)
51.7384546769608

>  <r_j_QM_Dipole_(debye)> (1)
2.94679169200035

>  <r_j_QM_Dipole_X_(debye)> (1)
-1.80036720169052

>  <r_j_QM_Dipole_Y_(debye)> (1)
1.71791651201292

>  <r_j_QM_Dipole_Z_(debye)> (1)
1.57829720676199

>  <r_j_Lowest_Frequency_(cm-1)> (1)
118.01707708425

>  <r_j_Highest_Frequency_(cm-1)> (1)
3055.23357281084

>  <r_j_2nd_Lowest_Frequency_(cm-1)> (1)
144.345261756342

>  <i_j_Num_Negative_Frequencies> (1)
0

>  <r_j_Zero_Point_Energy_(kcal/mol)> (1)
70.6782427731058

>  <r_j_Entropy_(cal/mol/K)_298.15K_1.00E+00atm> (1)
75.9254786703625

>  <r_j_Enthalpy_(kcal/mol)_298.15K_1.00E+00atm> (1)
4.35958734430567

>  <r_j_Free_Energy_(kcal/mol)_298.15K_1.00E+00atm> (1)
-18.2775941212629

>  <r_j_Internal_Energy_(kcal/mol)_298.15K_1.00E+00atm> (1)
3.7671017554784

>  <r_j_Heat_Capacity_(cal/mol/K)_298.15K_1.00E+00atm> (1)
20.3112564694005

>  <r_j_ln(Q)_298.15K_1.00E+00atm> (1)
30.8490104500944

>  <r_j_Total_Internal_Energy_(au)_298.15K_1.00E+00atm> (1)
-232.430559066592

>  <r_j_Total_Enthalpy_(au)_298.15K_1.00E+00atm> (1)
-232.429614880699

>  <r_j_Total_Free_Energy_(au)_298.15K_1.00E+00atm> (1)
-232.465689525861

>  <r_lp_tautomer_probability> (1)
1

>  <r_epik_Ionization_Penalty> (1)
  0.0000

>  <r_epik_Ionization_Penalty_Charging> (1)
  0.0000

>  <r_epik_Ionization_Penalty_Neutral> (1)
  0.0000

>  <r_epik_State_Penalty> (1)
  0.0000

>  <r_epik_Charging_Adjusted_Penalty> (1)
0

>  <i_epik_Tot_Q> (1)
0

>  <i_epik_Tot_abs_Q> (1)
0

>  <s_lp_Force_Field> (1)
S-OPLS

>  <r_lp_Energy> (1)
1.14391

>  <b_lp_Chiralities_Consistent> (1)
1

$$$$
