26375_2,3-dimethylheptane
                    3D
 Schrodinger Suite 2021-3.
 29 28  0  0  1  0            999 V2000
   -2.7098    2.8964    0.0515 C   0  0  0  0  0  0
   -2.1038    1.4903    0.0816 C   0  0  0  0  0  0
   -0.5793    1.4902   -0.0881 C   0  0  0  0  0  0
    0.0166    0.0757   -0.0857 C   0  0  0  0  0  0
    1.5586    0.0029   -0.0535 C   0  0  0  0  0  0
    2.1686    0.7577   -1.2467 C   0  0  0  0  0  0
    2.0623   -1.4666    0.0162 C   0  0  0  0  0  0
    1.5085   -2.2203    1.2379 C   0  0  0  0  0  0
    3.5981   -1.5580    0.0274 C   0  0  0  0  0  0
   -3.7971    2.8698    0.1786 H   0  0  0  0  0  0
   -2.4971    3.3969   -0.9003 H   0  0  0  0  0  0
   -2.2953    3.5210    0.8514 H   0  0  0  0  0  0
   -2.3632    0.9975    1.0286 H   0  0  0  0  0  0
   -2.5546    0.8780   -0.7116 H   0  0  0  0  0  0
   -0.3302    2.0109   -1.0211 H   0  0  0  0  0  0
   -0.1244    2.0798    0.7214 H   0  0  0  0  0  0
   -0.3875   -0.4509    0.7858 H   0  0  0  0  0  0
   -0.3480   -0.4720   -0.9680 H   0  0  0  0  0  0
    1.8954    0.5030    0.8697 H   0  0  0  0  0  0
    1.8917    0.2741   -2.1922 H   0  0  0  0  0  0
    3.2593    0.7939   -1.1960 H   0  0  0  0  0  0
    1.8179    1.7920   -1.2877 H   0  0  0  0  0  0
    1.7014   -1.9780   -0.8902 H   0  0  0  0  0  0
    1.7693   -1.6966    2.1663 H   0  0  0  0  0  0
    1.9354   -3.2270    1.2964 H   0  0  0  0  0  0
    0.4217   -2.3300    1.2095 H   0  0  0  0  0  0
    4.0152   -0.9801    0.8618 H   0  0  0  0  0  0
    4.0478   -1.1854   -0.8962 H   0  0  0  0  0  0
    3.9219   -2.5967    0.1513 H   0  0  0  0  0  0
  1  2  1  0  0  0
  1 10  1  0  0  0
  1 11  1  0  0  0
  1 12  1  0  0  0
  2  3  1  0  0  0
  2 13  1  0  0  0
  2 14  1  0  0  0
  3  4  1  0  0  0
  3 15  1  0  0  0
  3 16  1  0  0  0
  4  5  1  0  0  0
  4 17  1  0  0  0
  4 18  1  0  0  0
  5  6  1  0  0  0
  5  7  1  0  0  0
  5 19  1  0  0  0
  6 20  1  0  0  0
  6 21  1  0  0  0
  6 22  1  0  0  0
  7  8  1  0  0  0
  7  9  1  0  0  0
  7 23  1  0  0  0
  8 24  1  0  0  0
  8 25  1  0  0  0
  8 26  1  0  0  0
  9 27  1  0  0  0
  9 28  1  0  0  0
  9 29  1  0  0  0
M  END
>  <i_m_Spin_multiplicity> (1)
1

>  <s_j_Task> (1)
Single Point

>  <s_j_QM_Method> (1)
DFT(b3lyp-d3)

>  <s_j_QM_Basis> (1)
cc-pvtz(-f)

>  <i_j_Number_of_canonical_orbitals> (1)
383

>  <i_j_Geometry_convergence_category> (1)
0

>  <r_j_Gas_Phase_Energy> (1)
-355.168255646087

>  <r_j_Final_Energy> (1)
-355.168255646087

>  <r_j_HOMO> (1)
-0.298721102880028

>  <r_j_LUMO> (1)
0.0263751063101561

>  <r_j_Polarizability> (1)
111.253491860699

>  <r_j_QM_Dipole_(debye)> (1)
0.0722426690818388

>  <r_j_QM_Dipole_X_(debye)> (1)
-0.0526585251950876

>  <r_j_QM_Dipole_Y_(debye)> (1)
-0.0487752074713356

>  <r_j_QM_Dipole_Z_(debye)> (1)
-0.00818914503929159

>  <r_j_Lowest_Frequency_(cm-1)> (1)
78.6934628983224

>  <r_j_Highest_Frequency_(cm-1)> (1)
3073.89100888188

>  <r_j_2nd_Lowest_Frequency_(cm-1)> (1)
95.722887338303

>  <i_j_Num_Negative_Frequencies> (1)
0

>  <r_j_Zero_Point_Energy_(kcal/mol)> (1)
171.59586755194

>  <r_j_Entropy_(cal/mol/K)_298.15K_1.00E+00atm> (1)
102.23911526673

>  <r_j_Enthalpy_(kcal/mol)_298.15K_1.00E+00atm> (1)
7.80493573528174

>  <r_j_Free_Energy_(kcal/mol)_298.15K_1.00E+00atm> (1)
-22.6776564814939

>  <r_j_Internal_Energy_(kcal/mol)_298.15K_1.00E+00atm> (1)
7.21245014645447

>  <r_j_Heat_Capacity_(cal/mol/K)_298.15K_1.00E+00atm> (1)
43.9914453252536

>  <r_j_ln(Q)_298.15K_1.00E+00atm> (1)
38.2754566678669

>  <r_j_Total_Internal_Energy_(au)_298.15K_1.00E+00atm> (1)
-354.883306452096

>  <r_j_Total_Enthalpy_(au)_298.15K_1.00E+00atm> (1)
-354.882362266204

>  <r_j_Total_Free_Energy_(au)_298.15K_1.00E+00atm> (1)
-354.930939369298

>  <r_lp_tautomer_probability> (1)
1

>  <r_epik_Ionization_Penalty> (1)
  0.0000

>  <r_epik_Ionization_Penalty_Charging> (1)
  0.0000

>  <r_epik_Ionization_Penalty_Neutral> (1)
  0.0000

>  <r_epik_State_Penalty> (1)
  0.0000

>  <r_epik_Charging_Adjusted_Penalty> (1)
0

>  <i_epik_Tot_Q> (1)
0

>  <i_epik_Tot_abs_Q> (1)
0

>  <s_lp_Force_Field> (1)
S-OPLS

>  <r_lp_Energy> (1)
6.79216

>  <b_lp_Chiralities_Consistent> (1)
1

$$$$
