26519_n-Tetratriacontane
                    3D
 Schrodinger Suite 2021-3.
104103  0  0  1  0            999 V2000
   -7.0791   14.6266   -7.2923 C   0  0  0  0  0  0
   -5.7860   13.8392   -7.5232 C   0  0  0  0  0  0
   -5.7262   12.5301   -6.7264 C   0  0  0  0  0  0
   -4.4341   11.7395   -6.9592 C   0  0  0  0  0  0
   -4.3639   10.4239   -6.1748 C   0  0  0  0  0  0
   -3.0652    9.6484   -6.4313 C   0  0  0  0  0  0
   -2.9868    8.2783   -5.7424 C   0  0  0  0  0  0
   -2.9540    8.3285   -4.2082 C   0  0  0  0  0  0
   -2.7300    6.9482   -3.5800 C   0  0  0  0  0  0
   -2.6677    6.9546   -2.0476 C   0  0  0  0  0  0
   -2.3679    5.5675   -1.4681 C   0  0  0  0  0  0
   -2.2696    5.5221    0.0616 C   0  0  0  0  0  0
   -1.8918    4.1282    0.5770 C   0  0  0  0  0  0
   -1.7725    4.0268    2.1038 C   0  0  0  0  0  0
   -1.3485    2.6299    2.5914 C   0  0  0  0  0  0
    0.1153    2.2812    2.2854 C   0  0  0  0  0  0
    0.4721    0.8153    2.5587 C   0  0  0  0  0  0
    1.9424    0.4925    2.2626 C   0  0  0  0  0  0
    2.2671   -1.0056    2.2928 C   0  0  0  0  0  0
    3.7416   -1.3095    1.9984 C   0  0  0  0  0  0
    4.0330   -2.8010    1.7944 C   0  0  0  0  0  0
    5.5132   -3.0904    1.5091 C   0  0  0  0  0  0
    5.8249   -4.5534    1.1530 C   0  0  0  0  0  0
    5.2086   -5.0128   -0.1760 C   0  0  0  0  0  0
    5.6715   -6.4029   -0.6282 C   0  0  0  0  0  0
    5.0338   -6.8369   -1.9535 C   0  0  0  0  0  0
    5.5453   -8.1822   -2.4817 C   0  0  0  0  0  0
    4.8829   -8.5894   -3.8056 C   0  0  0  0  0  0
    5.4804   -9.8416   -4.4640 C   0  0  0  0  0  0
    5.3087  -11.1362   -3.6587 C   0  0  0  0  0  0
    5.8449  -12.3691   -4.3957 C   0  0  0  0  0  0
    5.6877  -13.6759   -3.6104 C   0  0  0  0  0  0
    6.2246  -14.9011   -4.3605 C   0  0  0  0  0  0
    6.0656  -16.2059   -3.5745 C   0  0  0  0  0  0
   -7.0947   15.5552   -7.8727 H   0  0  0  0  0  0
   -7.1957   14.8920   -6.2351 H   0  0  0  0  0  0
   -7.9566   14.0371   -7.5822 H   0  0  0  0  0  0
   -5.6781   13.6147   -8.5934 H   0  0  0  0  0  0
   -4.9221   14.4634   -7.2565 H   0  0  0  0  0  0
   -5.8317   12.7517   -5.6545 H   0  0  0  0  0  0
   -6.5902   11.9037   -6.9918 H   0  0  0  0  0  0
   -4.3291   11.5264   -8.0329 H   0  0  0  0  0  0
   -3.5718   12.3671   -6.6913 H   0  0  0  0  0  0
   -4.4689   10.6380   -5.1030 H   0  0  0  0  0  0
   -5.2227    9.7919   -6.4445 H   0  0  0  0  0  0
   -2.9498    9.5063   -7.5146 H   0  0  0  0  0  0
   -2.2094   10.2622   -6.1145 H   0  0  0  0  0  0
   -3.8363    7.6592   -6.0658 H   0  0  0  0  0  0
   -2.0845    7.7590   -6.0940 H   0  0  0  0  0  0
   -2.1528    9.0095   -3.8855 H   0  0  0  0  0  0
   -3.8896    8.7554   -3.8235 H   0  0  0  0  0  0
   -3.5284    6.2663   -3.9069 H   0  0  0  0  0  0
   -1.7944    6.5245   -3.9736 H   0  0  0  0  0  0
   -1.8940    7.6626   -1.7169 H   0  0  0  0  0  0
   -3.6174    7.3301   -1.6405 H   0  0  0  0  0  0
   -3.1415    4.8605   -1.8010 H   0  0  0  0  0  0
   -1.4235    5.2009   -1.8963 H   0  0  0  0  0  0
   -1.5211    6.2521    0.4023 H   0  0  0  0  0  0
   -3.2254    5.8370    0.5042 H   0  0  0  0  0  0
   -2.6378    3.3986    0.2294 H   0  0  0  0  0  0
   -0.9433    3.8320    0.1102 H   0  0  0  0  0  0
   -1.0530    4.7750    2.4670 H   0  0  0  0  0  0
   -2.7389    4.2920    2.5530 H   0  0  0  0  0  0
   -1.5134    2.5512    3.6742 H   0  0  0  0  0  0
   -2.0056    1.8781    2.1302 H   0  0  0  0  0  0
    0.3371    2.4969    1.2321 H   0  0  0  0  0  0
    0.7728    2.9394    2.8714 H   0  0  0  0  0  0
    0.2399    0.5598    3.6024 H   0  0  0  0  0  0
   -0.1712    0.1730    1.9398 H   0  0  0  0  0  0
    2.2027    0.8876    1.2697 H   0  0  0  0  0  0
    2.5858    1.0268    2.9761 H   0  0  0  0  0  0
    1.9908   -1.4289    3.2690 H   0  0  0  0  0  0
    1.6374   -1.5193    1.5518 H   0  0  0  0  0  0
    4.0465   -0.7645    1.0930 H   0  0  0  0  0  0
    4.3673   -0.9148    2.8116 H   0  0  0  0  0  0
    3.7147   -3.3689    2.6806 H   0  0  0  0  0  0
    3.4144   -3.1643    0.9634 H   0  0  0  0  0  0
    5.8515   -2.4470    0.6836 H   0  0  0  0  0  0
    6.1072   -2.7946    2.3845 H   0  0  0  0  0  0
    6.9150   -4.6789    1.0982 H   0  0  0  0  0  0
    5.4838   -5.2133    1.9635 H   0  0  0  0  0  0
    4.1133   -5.0104   -0.1019 H   0  0  0  0  0  0
    5.4600   -4.2813   -0.9581 H   0  0  0  0  0  0
    6.7662   -6.4054   -0.7319 H   0  0  0  0  0  0
    5.4390   -7.1423    0.1516 H   0  0  0  0  0  0
    3.9420   -6.8849   -1.8318 H   0  0  0  0  0  0
    5.2177   -6.0617   -2.7116 H   0  0  0  0  0  0
    6.6345   -8.1251   -2.6242 H   0  0  0  0  0  0
    5.3782   -8.9574   -1.7223 H   0  0  0  0  0  0
    3.8069   -8.7434   -3.6390 H   0  0  0  0  0  0
    4.9622   -7.7501   -4.5103 H   0  0  0  0  0  0
    5.0175   -9.9776   -5.4512 H   0  0  0  0  0  0
    6.5508   -9.6741   -4.6527 H   0  0  0  0  0  0
    5.8187  -11.0467   -2.6904 H   0  0  0  0  0  0
    4.2430  -11.2822   -3.4291 H   0  0  0  0  0  0
    5.3313  -12.4643   -5.3635 H   0  0  0  0  0  0
    6.9076  -12.2149   -4.6329 H   0  0  0  0  0  0
    6.2048  -13.5861   -2.6440 H   0  0  0  0  0  0
    4.6258  -13.8329   -3.3714 H   0  0  0  0  0  0
    5.7073  -14.9878   -5.3261 H   0  0  0  0  0  0
    7.2853  -14.7418   -4.5988 H   0  0  0  0  0  0
    6.4566  -17.0631   -4.1327 H   0  0  0  0  0  0
    5.0110  -16.4058   -3.3518 H   0  0  0  0  0  0
    6.6003  -16.1579   -2.6187 H   0  0  0  0  0  0
  1  2  1  0  0  0
  1 35  1  0  0  0
  1 36  1  0  0  0
  1 37  1  0  0  0
  2  3  1  0  0  0
  2 38  1  0  0  0
  2 39  1  0  0  0
  3  4  1  0  0  0
  3 40  1  0  0  0
  3 41  1  0  0  0
  4  5  1  0  0  0
  4 42  1  0  0  0
  4 43  1  0  0  0
  5  6  1  0  0  0
  5 44  1  0  0  0
  5 45  1  0  0  0
  6  7  1  0  0  0
  6 46  1  0  0  0
  6 47  1  0  0  0
  7  8  1  0  0  0
  7 48  1  0  0  0
  7 49  1  0  0  0
  8  9  1  0  0  0
  8 50  1  0  0  0
  8 51  1  0  0  0
  9 10  1  0  0  0
  9 52  1  0  0  0
  9 53  1  0  0  0
 10 11  1  0  0  0
 10 54  1  0  0  0
 10 55  1  0  0  0
 11 12  1  0  0  0
 11 56  1  0  0  0
 11 57  1  0  0  0
 12 13  1  0  0  0
 12 58  1  0  0  0
 12 59  1  0  0  0
 13 14  1  0  0  0
 13 60  1  0  0  0
 13 61  1  0  0  0
 14 15  1  0  0  0
 14 62  1  0  0  0
 14 63  1  0  0  0
 15 16  1  0  0  0
 15 64  1  0  0  0
 15 65  1  0  0  0
 16 17  1  0  0  0
 16 66  1  0  0  0
 16 67  1  0  0  0
 17 18  1  0  0  0
 17 68  1  0  0  0
 17 69  1  0  0  0
 18 19  1  0  0  0
 18 70  1  0  0  0
 18 71  1  0  0  0
 19 20  1  0  0  0
 19 72  1  0  0  0
 19 73  1  0  0  0
 20 21  1  0  0  0
 20 74  1  0  0  0
 20 75  1  0  0  0
 21 22  1  0  0  0
 21 76  1  0  0  0
 21 77  1  0  0  0
 22 23  1  0  0  0
 22 78  1  0  0  0
 22 79  1  0  0  0
 23 24  1  0  0  0
 23 80  1  0  0  0
 23 81  1  0  0  0
 24 25  1  0  0  0
 24 82  1  0  0  0
 24 83  1  0  0  0
 25 26  1  0  0  0
 25 84  1  0  0  0
 25 85  1  0  0  0
 26 27  1  0  0  0
 26 86  1  0  0  0
 26 87  1  0  0  0
 27 28  1  0  0  0
 27 88  1  0  0  0
 27 89  1  0  0  0
 28 29  1  0  0  0
 28 90  1  0  0  0
 28 91  1  0  0  0
 29 30  1  0  0  0
 29 92  1  0  0  0
 29 93  1  0  0  0
 30 31  1  0  0  0
 30 94  1  0  0  0
 30 95  1  0  0  0
 31 32  1  0  0  0
 31 96  1  0  0  0
 31 97  1  0  0  0
 32 33  1  0  0  0
 32 98  1  0  0  0
 32 99  1  0  0  0
 33 34  1  0  0  0
 33100  1  0  0  0
 33101  1  0  0  0
 34102  1  0  0  0
 34103  1  0  0  0
 34104  1  0  0  0
M  END
> <i_m_Spin_multiplicity>
1

> <s_j_Task>
Single Point

> <s_j_QM_Method>
DFT(b3lyp-d3)

> <s_j_QM_Basis>
cc-pvtz(-f)

> <i_j_Number_of_canonical_orbitals>
1402

> <i_j_Geometry_convergence_category>
4

> <r_j_Gas_Phase_Energy>
-1338.40131979801

> <r_j_Final_Energy>
-1338.40131979801

> <r_j_HOMO>
-0.202810625734912

> <r_j_LUMO>
-0.0240637510112747

> <r_j_Polarizability>
425.633637698441

> <r_j_QM_Dipole_(debye)>
0.065201415308788

> <r_j_QM_Dipole_X_(debye)>
0.0551327937129298

> <r_j_QM_Dipole_Y_(debye)>
0.0148560559765762

> <r_j_QM_Dipole_Z_(debye)>
-0.0314785199222805

> <r_j_Lowest_Frequency_(cm-1)>
12.3407723710596

> <r_j_Highest_Frequency_(cm-1)>
3044.94863705622

> <r_j_2nd_Lowest_Frequency_(cm-1)>
20.7818536688895

> <i_j_Num_Negative_Frequencies>
0

> <r_j_Zero_Point_Energy_(kcal/mol)>
618.910150166767

> <r_j_Entropy_(cal/mol/K)_298.15K_1.00E+00atm>
238.300397964601

> <r_j_Enthalpy_(kcal/mol)_298.15K_1.00E+00atm>
26.8054174571512

> <r_j_Free_Energy_(kcal/mol)_298.15K_1.00E+00atm>
-44.2438461959946

> <r_j_Internal_Energy_(kcal/mol)_298.15K_1.00E+00atm>
26.2129318683239

> <r_j_Heat_Capacity_(cal/mol/K)_298.15K_1.00E+00atm>
161.384241351993

> <r_j_ln(Q)_298.15K_1.00E+00atm>
74.6749744302944

> <r_j_Total_Internal_Energy_(au)_298.15K_1.00E+00atm>
-1337.37325072036

> <r_j_Total_Enthalpy_(au)_298.15K_1.00E+00atm>
-1337.37230653447

> <r_j_Total_Free_Energy_(au)_298.15K_1.00E+00atm>
-1337.4855307439

> <r_lp_tautomer_probability>
1

> <r_epik_Ionization_Penalty>
  0.0000

> <r_epik_Ionization_Penalty_Charging>
  0.0000

> <r_epik_Ionization_Penalty_Neutral>
  0.0000

> <r_epik_State_Penalty>
  0.0000

> <r_epik_Charging_Adjusted_Penalty>
0

> <i_epik_Tot_Q>
0

> <i_epik_Tot_abs_Q>
0

> <s_lp_Force_Field>
S-OPLS

> <r_lp_Energy>
18.2642

> <b_lp_Chiralities_Consistent>
1

$$$$
