26630_Nonenone
                    3D
 Schrodinger Suite 2021-3.
 26 25  0  0  1  0            999 V2000
   -2.6767    2.8533   -0.0791 C   0  0  0  0  0  0
   -2.0836    1.4418   -0.0404 C   0  0  0  0  0  0
   -0.5509    1.4379    0.0021 C   0  0  0  0  0  0
    0.0480    0.0279    0.0398 C   0  0  0  0  0  0
    1.5893    0.0315    0.0968 C   0  0  0  0  0  0
    2.1582   -1.3523    0.0792 C   0  0  0  0  0  0
    2.8863   -1.9155    1.0530 C   0  0  0  0  0  0
    3.3807   -3.3160    0.9420 C   0  0  0  0  0  0
    3.1544   -4.0139   -0.0362 O   0  0  0  0  0  0
    4.1861   -3.8371    2.1194 C   0  0  0  0  0  0
   -3.7708    2.8288   -0.1080 H   0  0  0  0  0  0
   -2.3316    3.4018   -0.9631 H   0  0  0  0  0  0
   -2.3789    3.4304    0.8039 H   0  0  0  0  0  0
   -2.4702    0.9033    0.8354 H   0  0  0  0  0  0
   -2.4219    0.8754   -0.9187 H   0  0  0  0  0  0
   -0.1609    1.9764   -0.8735 H   0  0  0  0  0  0
   -0.2106    2.0029    0.8818 H   0  0  0  0  0  0
   -0.3401   -0.5164    0.9105 H   0  0  0  0  0  0
   -0.2808   -0.5349   -0.8443 H   0  0  0  0  0  0
    1.9683    0.5859   -0.7746 H   0  0  0  0  0  0
    1.9267    0.5736    0.9889 H   0  0  0  0  0  0
    1.9440   -1.9674   -0.7956 H   0  0  0  0  0  0
    3.1334   -1.3595    1.9562 H   0  0  0  0  0  0
    5.0716   -3.2107    2.2806 H   0  0  0  0  0  0
    4.4917   -4.8671    1.9323 H   0  0  0  0  0  0
    3.5899   -3.7882    3.0385 H   0  0  0  0  0  0
  1  2  1  0  0  0
  1 11  1  0  0  0
  1 12  1  0  0  0
  1 13  1  0  0  0
  2  3  1  0  0  0
  2 14  1  0  0  0
  2 15  1  0  0  0
  3  4  1  0  0  0
  3 16  1  0  0  0
  3 17  1  0  0  0
  4  5  1  0  0  0
  4 18  1  0  0  0
  4 19  1  0  0  0
  5  6  1  0  0  0
  5 20  1  0  0  0
  5 21  1  0  0  0
  6  7  2  0  0  0
  6 22  1  0  0  0
  7  8  1  0  0  0
  7 23  1  0  0  0
  8  9  2  0  0  0
  8 10  1  0  0  0
 10 24  1  0  0  0
 10 25  1  0  0  0
 10 26  1  0  0  0
M  END
>  <i_m_Spin_multiplicity> (1)
1

>  <s_j_Task> (1)
Single Point

>  <s_j_QM_Method> (1)
DFT(b3lyp-d3)

>  <s_j_QM_Basis> (1)
cc-pvtz(-f)

>  <i_j_Number_of_canonical_orbitals> (1)
372

>  <i_j_Geometry_convergence_category> (1)
0

>  <r_j_Gas_Phase_Energy> (1)
-427.978775644789

>  <r_j_Final_Energy> (1)
-427.978775644789

>  <r_j_HOMO> (1)
-0.269691494701754

>  <r_j_LUMO> (1)
-0.0731041230529385

>  <r_j_Polarizability> (1)
116.77404455064

>  <r_j_QM_Dipole_(debye)> (1)
3.09219033002109

>  <r_j_QM_Dipole_X_(debye)> (1)
-0.421881753487581

>  <r_j_QM_Dipole_Y_(debye)> (1)
2.56412197695028

>  <r_j_QM_Dipole_Z_(debye)> (1)
1.675987861075

>  <r_j_Lowest_Frequency_(cm-1)> (1)
57.5929046235631

>  <r_j_Highest_Frequency_(cm-1)> (1)
3103.75348753474

>  <r_j_2nd_Lowest_Frequency_(cm-1)> (1)
78.1635544706321

>  <i_j_Num_Negative_Frequencies> (1)
0

>  <r_j_Zero_Point_Energy_(kcal/mol)> (1)
145.160537854326

>  <r_j_Entropy_(cal/mol/K)_298.15K_1.00E+00atm> (1)
105.184011369262

>  <r_j_Enthalpy_(kcal/mol)_298.15K_1.00E+00atm> (1)
7.96155888979298

>  <r_j_Free_Energy_(kcal/mol)_298.15K_1.00E+00atm> (1)
-23.3990540999524

>  <r_j_Internal_Energy_(kcal/mol)_298.15K_1.00E+00atm> (1)
7.36907330096571

>  <r_j_Heat_Capacity_(cal/mol/K)_298.15K_1.00E+00atm> (1)
43.1947134439489

>  <r_j_ln(Q)_298.15K_1.00E+00atm> (1)
39.4930350057406

>  <r_j_Total_Internal_Energy_(au)_298.15K_1.00E+00atm> (1)
-427.735704235596

>  <r_j_Total_Enthalpy_(au)_298.15K_1.00E+00atm> (1)
-427.734760049703

>  <r_j_Total_Free_Energy_(au)_298.15K_1.00E+00atm> (1)
-427.784736367973

>  <r_lp_tautomer_probability> (1)
1

>  <r_epik_Ionization_Penalty> (1)
  0.0000

>  <r_epik_Ionization_Penalty_Charging> (1)
  0.0000

>  <r_epik_Ionization_Penalty_Neutral> (1)
  0.0000

>  <r_epik_State_Penalty> (1)
  0.0000

>  <r_epik_Charging_Adjusted_Penalty> (1)
0

>  <i_epik_Tot_Q> (1)
0

>  <i_epik_Tot_abs_Q> (1)
0

>  <s_lp_Force_Field> (1)
S-OPLS

>  <r_lp_Energy> (1)
-0.248806

>  <b_lp_Chiralities_Consistent> (1)
1

$$$$
