26839_2,2,4-trimethylheptane
                    3D
 Schrodinger Suite 2021-3.
 32 31  0  0  1  0            999 V2000
   -2.2115    1.6431   -0.2306 C   0  0  0  0  0  0
   -0.6824    1.6083   -0.3205 C   0  0  0  0  0  0
   -0.1178    0.1942   -0.1232 C   0  0  0  0  0  0
    1.4163    0.1089   -0.0097 C   0  0  0  0  0  0
    2.1074    0.7775   -1.2119 C   0  0  0  0  0  0
    1.9577   -1.3341    0.1237 C   0  0  0  0  0  0
    1.5525   -2.2287    1.3332 C   0  0  0  0  0  0
    2.6127   -3.3450    1.4512 C   0  0  0  0  0  0
    0.1849   -2.9108    1.1223 C   0  0  0  0  0  0
    1.5405   -1.4229    2.6448 C   0  0  0  0  0  0
   -2.6016    2.6545   -0.3860 H   0  0  0  0  0  0
   -2.5585    1.2980    0.7503 H   0  0  0  0  0  0
   -2.6644    0.9914   -0.9870 H   0  0  0  0  0  0
   -0.3714    2.0080   -1.2927 H   0  0  0  0  0  0
   -0.2534    2.2783    0.4378 H   0  0  0  0  0  0
   -0.5665   -0.2182    0.7868 H   0  0  0  0  0  0
   -0.4558   -0.4508   -0.9481 H   0  0  0  0  0  0
    1.7119    0.6671    0.8906 H   0  0  0  0  0  0
    1.7898    0.3090   -2.1521 H   0  0  0  0  0  0
    3.1963    0.6799   -1.1449 H   0  0  0  0  0  0
    1.8770    1.8445   -1.2763 H   0  0  0  0  0  0
    1.7241   -1.8812   -0.8018 H   0  0  0  0  0  0
    3.0526   -1.2476    0.1444 H   0  0  0  0  0  0
    2.3553   -4.0487    2.2509 H   0  0  0  0  0  0
    3.6023   -2.9304    1.6746 H   0  0  0  0  0  0
    2.6907   -3.9139    0.5173 H   0  0  0  0  0  0
    0.1823   -3.4970    0.1961 H   0  0  0  0  0  0
   -0.6384   -2.1966    1.0648 H   0  0  0  0  0  0
   -0.0311   -3.5963    1.9499 H   0  0  0  0  0  0
    1.3645   -2.0836    3.5012 H   0  0  0  0  0  0
    0.7553   -0.6606    2.6494 H   0  0  0  0  0  0
    2.4994   -0.9168    2.8053 H   0  0  0  0  0  0
  1  2  1  0  0  0
  1 11  1  0  0  0
  1 12  1  0  0  0
  1 13  1  0  0  0
  2  3  1  0  0  0
  2 14  1  0  0  0
  2 15  1  0  0  0
  3  4  1  0  0  0
  3 16  1  0  0  0
  3 17  1  0  0  0
  4  5  1  0  0  0
  4  6  1  0  0  0
  4 18  1  0  0  0
  5 19  1  0  0  0
  5 20  1  0  0  0
  5 21  1  0  0  0
  6  7  1  0  0  0
  6 22  1  0  0  0
  6 23  1  0  0  0
  7  8  1  0  0  0
  7  9  1  0  0  0
  7 10  1  0  0  0
  8 24  1  0  0  0
  8 25  1  0  0  0
  8 26  1  0  0  0
  9 27  1  0  0  0
  9 28  1  0  0  0
  9 29  1  0  0  0
 10 30  1  0  0  0
 10 31  1  0  0  0
 10 32  1  0  0  0
M  END
>  <i_m_Spin_multiplicity> (1)
1

>  <s_j_Task> (1)
Single Point

>  <s_j_QM_Method> (1)
DFT(b3lyp-d3)

>  <s_j_QM_Basis> (1)
cc-pvtz(-f)

>  <i_j_Number_of_canonical_orbitals> (1)
425

>  <i_j_Geometry_convergence_category> (1)
1

>  <r_j_Gas_Phase_Energy> (1)
-394.497173255078

>  <r_j_Final_Energy> (1)
-394.497173255078

>  <r_j_HOMO> (1)
-0.301788250769715

>  <r_j_LUMO> (1)
0.00983954829215345

>  <r_j_Polarizability> (1)
122.744404207171

>  <r_j_QM_Dipole_(debye)> (1)
0.139351827518463

>  <r_j_QM_Dipole_X_(debye)> (1)
0.0314096483247836

>  <r_j_QM_Dipole_Y_(debye)> (1)
0.131883834989899

>  <r_j_QM_Dipole_Z_(debye)> (1)
0.0322338315005554

>  <r_j_Lowest_Frequency_(cm-1)> (1)
73.7667819632452

>  <r_j_Highest_Frequency_(cm-1)> (1)
3082.44192286672

>  <r_j_2nd_Lowest_Frequency_(cm-1)> (1)
117.05690325815

>  <i_j_Num_Negative_Frequencies> (1)
0

>  <r_j_Zero_Point_Energy_(kcal/mol)> (1)
189.253938631822

>  <r_j_Entropy_(cal/mol/K)_298.15K_1.00E+00atm> (1)
105.572021521563

>  <r_j_Enthalpy_(kcal/mol)_298.15K_1.00E+00atm> (1)
8.42418652595832

>  <r_j_Free_Energy_(kcal/mol)_298.15K_1.00E+00atm> (1)
-23.0521116906958

>  <r_j_Internal_Energy_(kcal/mol)_298.15K_1.00E+00atm> (1)
7.83170093713105

>  <r_j_Heat_Capacity_(cal/mol/K)_298.15K_1.00E+00atm> (1)
49.4432650348236

>  <r_j_ln(Q)_298.15K_1.00E+00atm> (1)
38.9074639542264

>  <r_j_Total_Internal_Energy_(au)_298.15K_1.00E+00atm> (1)
-394.183097294489

>  <r_j_Total_Enthalpy_(au)_298.15K_1.00E+00atm> (1)
-394.182153108597

>  <r_j_Total_Free_Energy_(au)_298.15K_1.00E+00atm> (1)
-394.232313783011

>  <r_lp_tautomer_probability> (1)
1

>  <r_epik_Ionization_Penalty> (1)
  0.0000

>  <r_epik_Ionization_Penalty_Charging> (1)
  0.0000

>  <r_epik_Ionization_Penalty_Neutral> (1)
  0.0000

>  <r_epik_State_Penalty> (1)
  0.0000

>  <r_epik_Charging_Adjusted_Penalty> (1)
0

>  <i_epik_Tot_Q> (1)
0

>  <i_epik_Tot_abs_Q> (1)
0

>  <s_lp_Force_Field> (1)
S-OPLS

>  <r_lp_Energy> (1)
10.30847

>  <b_lp_Chiralities_Consistent> (1)
1

$$$$
