2723650_Ethylenethiourea
                    3D
 Schrodinger Suite 2021-3.
 12 12  0  0  1  0            999 V2000
   -2.7717   -0.6789   -1.1535 C   0  0  0  0  0  0
   -3.9036    0.3203   -1.4662 C   0  0  0  0  0  0
   -3.8732    0.3137   -2.9273 N   0  0  0  0  0  0
   -2.6383   -0.0417   -3.4014 C   0  0  0  0  0  0
   -2.1101    0.0622   -4.9812 S   0  0  0  0  0  0
   -1.9209   -0.4990   -2.3280 N   0  0  0  0  0  0
   -3.1603   -1.7054   -1.0877 H   0  0  0  0  0  0
   -2.2436   -0.4408   -0.2269 H   0  0  0  0  0  0
   -4.8717   -0.0044   -1.0769 H   0  0  0  0  0  0
   -3.6727    1.3157   -1.0603 H   0  0  0  0  0  0
   -4.4303    0.9450   -3.4832 H   0  0  0  0  0  0
   -1.1173   -1.0816   -2.5089 H   0  0  0  0  0  0
  1  6  1  0  0  0
  1  2  1  0  0  0
  1  7  1  0  0  0
  1  8  1  0  0  0
  2  3  1  0  0  0
  2  9  1  0  0  0
  2 10  1  0  0  0
  3  4  1  0  0  0
  3 11  1  0  0  0
  4  5  2  0  0  0
  4  6  1  0  0  0
  6 12  1  0  0  0
M  END
>  <i_m_Spin_multiplicity> (1)
1

>  <s_j_Task> (1)
Single Point

>  <s_j_QM_Method> (1)
DFT(b3lyp-d3)

>  <s_j_QM_Basis> (1)
cc-pvtz(-f)

>  <i_j_Number_of_canonical_orbitals> (1)
196

>  <i_j_Geometry_convergence_category> (1)
0

>  <r_j_Gas_Phase_Energy> (1)
-625.74934531374

>  <r_j_Final_Energy> (1)
-625.74934531374

>  <r_j_HOMO> (1)
-0.184957452294463

>  <r_j_LUMO> (1)
0.0114165475132114

>  <r_j_Polarizability> (1)
68.7799938649072

>  <r_j_QM_Dipole_(debye)> (1)
5.62181039024892

>  <r_j_QM_Dipole_X_(debye)> (1)
-1.77886073195615

>  <r_j_QM_Dipole_Y_(debye)> (1)
-0.349748245883405

>  <r_j_QM_Dipole_Z_(debye)> (1)
5.32147373616714

>  <r_j_Lowest_Frequency_(cm-1)> (1)
174.859403801922

>  <r_j_Highest_Frequency_(cm-1)> (1)
3598.56319401085

>  <r_j_2nd_Lowest_Frequency_(cm-1)> (1)
247.947700625359

>  <i_j_Num_Negative_Frequencies> (1)
0

>  <r_j_Zero_Point_Energy_(kcal/mol)> (1)
61.0823335747611

>  <r_j_Entropy_(cal/mol/K)_298.15K_1.00E+00atm> (1)
75.2180061087869

>  <r_j_Enthalpy_(kcal/mol)_298.15K_1.00E+00atm> (1)
4.01531433568871

>  <r_j_Free_Energy_(kcal/mol)_298.15K_1.00E+00atm> (1)
-18.4109341856461

>  <r_j_Internal_Energy_(kcal/mol)_298.15K_1.00E+00atm> (1)
3.42282874686143

>  <r_j_Heat_Capacity_(cal/mol/K)_298.15K_1.00E+00atm> (1)
19.9548519361682

>  <r_j_ln(Q)_298.15K_1.00E+00atm> (1)
31.074062446122

>  <r_j_Total_Internal_Energy_(au)_298.15K_1.00E+00atm> (1)
-625.646549793663

>  <r_j_Total_Enthalpy_(au)_298.15K_1.00E+00atm> (1)
-625.645605607771

>  <r_j_Total_Free_Energy_(au)_298.15K_1.00E+00atm> (1)
-625.681344109887

>  <r_lp_tautomer_probability> (1)
1

>  <r_epik_Ionization_Penalty> (1)
  0.0000

>  <r_epik_Ionization_Penalty_Charging> (1)
  0.0000

>  <r_epik_Ionization_Penalty_Neutral> (1)
  0.0000

>  <r_epik_State_Penalty> (1)
  0.0000

>  <r_epik_Charging_Adjusted_Penalty> (1)
0

>  <i_epik_Tot_Q> (1)
0

>  <i_epik_Tot_abs_Q> (1)
0

>  <s_lp_Force_Field> (1)
S-OPLS

>  <r_lp_Energy> (1)
-0.722702

>  <b_lp_Chiralities_Consistent> (1)
1

$$$$
