274991_Allobetulone
                    3D
 Schrodinger Suite 2021-3.
 80 85  0  0  1  0            999 V2000
   -0.1283    0.0882   -0.2730 C   0  0  0  0  0  0
    1.4076    0.1347   -0.2215 C   0  0  0  0  0  0
    1.9516    0.6726   -1.5751 C   0  0  0  0  0  0
    3.4190    0.2965   -1.8860 C   0  0  0  0  0  0
    3.7261   -1.1773   -1.5352 C   0  0  0  0  0  0
    5.1541   -1.6198   -1.9322 C   0  0  0  0  0  0
    6.1423   -1.4746   -0.7651 C   0  0  0  0  0  0
    5.7605   -2.3335    0.4891 C   0  0  0  0  0  0
    4.2034   -2.5891    0.5058 C   0  0  0  0  0  0
    3.4692   -1.3387   -0.0105 C   0  0  0  0  0  0
    1.9402   -1.3152   -0.0230 C   0  0  0  0  0  0
    1.5635   -2.1358   -1.1448 O   0  0  0  0  0  0
    2.6254   -2.1030   -2.1083 C   0  0  0  0  0  0
    3.7137   -3.2013    1.8332 C   0  0  0  0  0  0
    4.2672   -2.5556    3.1063 C   0  0  0  0  0  0
    5.8088   -2.4947    3.0694 C   0  0  0  0  0  0
    6.2758   -1.6220    1.8448 C   0  0  0  0  0  0
    7.8244   -1.5204    1.8208 C   0  0  0  0  0  0
    8.4727   -1.2144    3.1828 C   0  0  0  0  0  0
    8.0439   -2.1412    4.3450 C   0  0  0  0  0  0
    6.4762   -2.1891    4.4612 C   0  0  0  0  0  0
    6.0870   -3.2745    5.5024 C   0  0  0  0  0  0
    6.6858   -4.6601    5.2323 C   0  0  0  0  0  0
    8.1901   -4.5335    5.3328 C   0  0  0  0  0  0
    8.8402   -5.2072    6.1113 O   0  0  0  0  0  0
    8.8514   -3.5062    4.3938 C   0  0  0  0  0  0
    8.9916   -4.2622    3.0456 C   0  0  0  0  0  0
   10.2729   -3.2201    4.9170 C   0  0  0  0  0  0
    5.9870   -0.8576    5.0842 C   0  0  0  0  0  0
    5.7574   -0.1617    1.9781 C   0  0  0  0  0  0
    6.4077   -3.7266    0.2670 C   0  0  0  0  0  0
    1.8355    1.0390    0.9512 C   0  0  0  0  0  0
   -0.5407    1.0672   -0.5427 H   0  0  0  0  0  0
   -0.5434   -0.1925    0.7024 H   0  0  0  0  0  0
   -0.4617   -0.6469   -1.0098 H   0  0  0  0  0  0
    1.3182    0.2691   -2.3726 H   0  0  0  0  0  0
    1.8265    1.7616   -1.6120 H   0  0  0  0  0  0
    3.6168    0.4799   -2.9500 H   0  0  0  0  0  0
    4.1130    0.9395   -1.3283 H   0  0  0  0  0  0
    5.1413   -2.6636   -2.2682 H   0  0  0  0  0  0
    5.5094   -1.0351   -2.7890 H   0  0  0  0  0  0
    7.1490   -1.7520   -1.0971 H   0  0  0  0  0  0
    6.2021   -0.4131   -0.5175 H   0  0  0  0  0  0
    4.0148   -3.3707   -0.2398 H   0  0  0  0  0  0
    3.8385   -0.4687    0.5207 H   0  0  0  0  0  0
    1.4742   -1.7530    0.8669 H   0  0  0  0  0  0
    2.2422   -1.7448   -3.0730 H   0  0  0  0  0  0
    2.9960   -3.1259   -2.2577 H   0  0  0  0  0  0
    2.6189   -3.2050    1.8560 H   0  0  0  0  0  0
    4.0041   -4.2597    1.8436 H   0  0  0  0  0  0
    3.8372   -1.5585    3.2444 H   0  0  0  0  0  0
    3.9241   -3.1453    3.9614 H   0  0  0  0  0  0
    6.1376   -3.5114    2.8339 H   0  0  0  0  0  0
    8.2524   -2.4397    1.4320 H   0  0  0  0  0  0
    8.1179   -0.7354    1.1127 H   0  0  0  0  0  0
    9.5611   -1.2431    3.0641 H   0  0  0  0  0  0
    8.2490   -0.1817    3.4715 H   0  0  0  0  0  0
    8.3656   -1.6401    5.2681 H   0  0  0  0  0  0
    6.4502   -2.9421    6.4842 H   0  0  0  0  0  0
    5.0003   -3.3437    5.6023 H   0  0  0  0  0  0
    6.3527   -5.3966    5.9676 H   0  0  0  0  0  0
    6.4007   -5.0229    4.2377 H   0  0  0  0  0  0
    9.6056   -3.6905    2.3454 H   0  0  0  0  0  0
    8.0341   -4.4715    2.5672 H   0  0  0  0  0  0
    9.4986   -5.2171    3.2180 H   0  0  0  0  0  0
   10.7994   -2.5217    4.2603 H   0  0  0  0  0  0
   10.8523   -4.1437    4.9760 H   0  0  0  0  0  0
   10.2417   -2.7925    5.9233 H   0  0  0  0  0  0
    6.3598   -0.7680    6.1102 H   0  0  0  0  0  0
    4.8946   -0.8234    5.1320 H   0  0  0  0  0  0
    6.3201    0.0265    4.5453 H   0  0  0  0  0  0
    6.3771    0.4014    2.6744 H   0  0  0  0  0  0
    4.7321   -0.0876    2.3379 H   0  0  0  0  0  0
    5.8125    0.3817    1.0344 H   0  0  0  0  0  0
    6.1141   -4.4618    1.0199 H   0  0  0  0  0  0
    7.4984   -3.6942    0.2392 H   0  0  0  0  0  0
    6.0808   -4.1208   -0.7010 H   0  0  0  0  0  0
    2.8998    1.2897    0.9281 H   0  0  0  0  0  0
    1.6262    0.5612    1.9163 H   0  0  0  0  0  0
    1.2786    1.9815    0.9228 H   0  0  0  0  0  0
  1  2  1  0  0  0
  1 33  1  0  0  0
  1 34  1  0  0  0
  1 35  1  0  0  0
  2 11  1  0  0  0
  2  3  1  0  0  0
  2 32  1  0  0  0
  3  4  1  0  0  0
  3 36  1  0  0  0
  3 37  1  0  0  0
  4  5  1  0  0  0
  4 38  1  0  0  0
  4 39  1  0  0  0
  5 10  1  0  0  0
  5 13  1  0  0  0
  5  6  1  0  0  0
  6  7  1  0  0  0
  6 40  1  0  0  0
  6 41  1  0  0  0
  7  8  1  0  0  0
  7 42  1  0  0  0
  7 43  1  0  0  0
  8 17  1  0  0  0
  8  9  1  0  0  0
  8 31  1  0  0  0
  9 10  1  0  0  0
  9 14  1  0  0  0
  9 44  1  0  0  0
 10 11  1  0  0  0
 10 45  1  0  0  0
 11 12  1  0  0  0
 11 46  1  0  0  0
 12 13  1  0  0  0
 13 47  1  0  0  0
 13 48  1  0  0  0
 14 15  1  0  0  0
 14 49  1  0  0  0
 14 50  1  0  0  0
 15 16  1  0  0  0
 15 51  1  0  0  0
 15 52  1  0  0  0
 16 21  1  0  0  0
 16 17  1  0  0  0
 16 53  1  0  0  0
 17 18  1  0  0  0
 17 30  1  0  0  0
 18 19  1  0  0  0
 18 54  1  0  0  0
 18 55  1  0  0  0
 19 20  1  0  0  0
 19 56  1  0  0  0
 19 57  1  0  0  0
 20 26  1  0  0  0
 20 21  1  0  0  0
 20 58  1  0  0  0
 21 22  1  0  0  0
 21 29  1  0  0  0
 22 23  1  0  0  0
 22 59  1  0  0  0
 22 60  1  0  0  0
 23 24  1  0  0  0
 23 61  1  0  0  0
 23 62  1  0  0  0
 24 25  2  0  0  0
 24 26  1  0  0  0
 26 27  1  0  0  0
 26 28  1  0  0  0
 27 63  1  0  0  0
 27 64  1  0  0  0
 27 65  1  0  0  0
 28 66  1  0  0  0
 28 67  1  0  0  0
 28 68  1  0  0  0
 29 69  1  0  0  0
 29 70  1  0  0  0
 29 71  1  0  0  0
 30 72  1  0  0  0
 30 73  1  0  0  0
 30 74  1  0  0  0
 31 75  1  0  0  0
 31 76  1  0  0  0
 31 77  1  0  0  0
 32 78  1  0  0  0
 32 79  1  0  0  0
 32 80  1  0  0  0
M  END
>  <i_m_Spin_multiplicity> (1)
1

>  <s_j_Task> (1)
Single Point

>  <s_j_QM_Method> (1)
DFT(b3lyp-d3)

>  <s_j_QM_Basis> (1)
cc-pvtz(-f)

>  <i_j_Number_of_canonical_orbitals> (1)
1143

>  <i_j_Geometry_convergence_category> (1)
1

>  <r_j_Gas_Phase_Energy> (1)
-1323.06443707435

>  <r_j_Final_Energy> (1)
-1323.06443707435

>  <r_j_HOMO> (1)
-0.25343041790902

>  <r_j_LUMO> (1)
-0.0656341711114459

>  <r_j_Polarizability> (1)
327.957648858689

>  <r_j_QM_Dipole_(debye)> (1)
3.19052522950168

>  <r_j_QM_Dipole_X_(debye)> (1)
-0.150560649527023

>  <r_j_QM_Dipole_Y_(debye)> (1)
2.5354915123708

>  <r_j_QM_Dipole_Z_(debye)> (1)
-1.93081990915681

>  <r_j_Lowest_Frequency_(cm-1)> (1)
49.4561107957468

>  <r_j_Highest_Frequency_(cm-1)> (1)
3140.01413421489

>  <r_j_2nd_Lowest_Frequency_(cm-1)> (1)
55.3325771479719

>  <i_j_Num_Negative_Frequencies> (1)
0

>  <r_j_Zero_Point_Energy_(kcal/mol)> (1)
459.886975959208

>  <r_j_Entropy_(cal/mol/K)_298.15K_1.00E+00atm> (1)
168.811375295809

>  <r_j_Enthalpy_(kcal/mol)_298.15K_1.00E+00atm> (1)
18.3156803616207

>  <r_j_Free_Energy_(kcal/mol)_298.15K_1.00E+00atm> (1)
-32.0154311828247

>  <r_j_Internal_Energy_(kcal/mol)_298.15K_1.00E+00atm> (1)
17.7231947727934

>  <r_j_Heat_Capacity_(cal/mol/K)_298.15K_1.00E+00atm> (1)
126.965519556061

>  <r_j_ln(Q)_298.15K_1.00E+00atm> (1)
54.0357973030093

>  <r_j_Total_Internal_Energy_(au)_298.15K_1.00E+00atm> (1)
-1322.30331681471

>  <r_j_Total_Enthalpy_(au)_298.15K_1.00E+00atm> (1)
-1322.30237262882

>  <r_j_Total_Free_Energy_(au)_298.15K_1.00E+00atm> (1)
-1322.38258036106

>  <r_lp_tautomer_probability> (1)
1

>  <r_epik_Ionization_Penalty> (1)
  0.0000

>  <r_epik_Ionization_Penalty_Charging> (1)
  0.0000

>  <r_epik_Ionization_Penalty_Neutral> (1)
  0.0000

>  <r_epik_State_Penalty> (1)
  0.0000

>  <r_epik_Charging_Adjusted_Penalty> (1)
0

>  <i_epik_Tot_Q> (1)
0

>  <i_epik_Tot_abs_Q> (1)
0

>  <s_lp_Force_Field> (1)
S-OPLS

>  <r_lp_Energy> (1)
109.301

>  <b_lp_Chiralities_Consistent> (1)
1

$$$$
