27518_5-methylnonane
                    3D
 Schrodinger Suite 2021-3.
 32 31  0  0  1  0            999 V2000
   -2.6829    3.0203   -0.0154 C   0  0  0  0  0  0
   -2.1301    1.5921   -0.0032 C   0  0  0  0  0  0
   -0.5998    1.5402   -0.0935 C   0  0  0  0  0  0
   -0.0506    0.1077   -0.1059 C   0  0  0  0  0  0
    1.4854   -0.0081   -0.0449 C   0  0  0  0  0  0
    2.1598    0.7050   -1.2274 C   0  0  0  0  0  0
    1.9475   -1.4786    0.0105 C   0  0  0  0  0  0
    1.5117   -2.2661    1.2525 C   0  0  0  0  0  0
    2.1043   -3.6801    1.3007 C   0  0  0  0  0  0
    1.6686   -4.4706    2.5379 C   0  0  0  0  0  0
   -3.7757    3.0307    0.0541 H   0  0  0  0  0  0
   -2.4022    3.5436   -0.9369 H   0  0  0  0  0  0
   -2.2894    3.6022    0.8261 H   0  0  0  0  0  0
   -2.4566    1.0783    0.9113 H   0  0  0  0  0  0
   -2.5601    1.0239   -0.8395 H   0  0  0  0  0  0
   -0.2811    2.0768   -0.9963 H   0  0  0  0  0  0
   -0.1678    2.0895    0.7559 H   0  0  0  0  0  0
   -0.4855   -0.4311    0.7451 H   0  0  0  0  0  0
   -0.4088   -0.4106   -1.0083 H   0  0  0  0  0  0
    1.8208    0.4823    0.8828 H   0  0  0  0  0  0
    1.8183    0.2808   -2.1800 H   0  0  0  0  0  0
    3.2486    0.5916   -1.1852 H   0  0  0  0  0  0
    1.9407    1.7765   -1.2422 H   0  0  0  0  0  0
    1.5921   -1.9972   -0.8927 H   0  0  0  0  0  0
    3.0450   -1.4993   -0.0447 H   0  0  0  0  0  0
    1.8118   -1.7158    2.1562 H   0  0  0  0  0  0
    0.4175   -2.3415    1.2922 H   0  0  0  0  0  0
    1.8102   -4.2251    0.3932 H   0  0  0  0  0  0
    3.2006   -3.6147    1.2726 H   0  0  0  0  0  0
    2.1040   -5.4753    2.5485 H   0  0  0  0  0  0
    0.5783   -4.5790    2.5727 H   0  0  0  0  0  0
    1.9782   -3.9630    3.4588 H   0  0  0  0  0  0
  1  2  1  0  0  0
  1 11  1  0  0  0
  1 12  1  0  0  0
  1 13  1  0  0  0
  2  3  1  0  0  0
  2 14  1  0  0  0
  2 15  1  0  0  0
  3  4  1  0  0  0
  3 16  1  0  0  0
  3 17  1  0  0  0
  4  5  1  0  0  0
  4 18  1  0  0  0
  4 19  1  0  0  0
  5  6  1  0  0  0
  5  7  1  0  0  0
  5 20  1  0  0  0
  6 21  1  0  0  0
  6 22  1  0  0  0
  6 23  1  0  0  0
  7  8  1  0  0  0
  7 24  1  0  0  0
  7 25  1  0  0  0
  8  9  1  0  0  0
  8 26  1  0  0  0
  8 27  1  0  0  0
  9 10  1  0  0  0
  9 28  1  0  0  0
  9 29  1  0  0  0
 10 30  1  0  0  0
 10 31  1  0  0  0
 10 32  1  0  0  0
M  END
>  <i_m_Spin_multiplicity> (1)
1

>  <s_j_Task> (1)
Single Point

>  <s_j_QM_Method> (1)
DFT(b3lyp-d3)

>  <s_j_QM_Basis> (1)
cc-pvtz(-f)

>  <i_j_Number_of_canonical_orbitals> (1)
426

>  <i_j_Geometry_convergence_category> (1)
1

>  <r_j_Gas_Phase_Energy> (1)
-394.499455277577

>  <r_j_Final_Energy> (1)
-394.499455277577

>  <r_j_HOMO> (1)
-0.301364969080414

>  <r_j_LUMO> (1)
0.0086161749888848

>  <r_j_Polarizability> (1)
124.600971770651

>  <r_j_QM_Dipole_(debye)> (1)
0.0543709888101823

>  <r_j_QM_Dipole_X_(debye)> (1)
0.0105955629827589

>  <r_j_QM_Dipole_Y_(debye)> (1)
-0.02967230737151

>  <r_j_QM_Dipole_Z_(debye)> (1)
0.044311315084592

>  <r_j_Lowest_Frequency_(cm-1)> (1)
71.2494492557709

>  <r_j_Highest_Frequency_(cm-1)> (1)
3055.95456552977

>  <r_j_2nd_Lowest_Frequency_(cm-1)> (1)
98.2836269590833

>  <i_j_Num_Negative_Frequencies> (1)
0

>  <r_j_Zero_Point_Energy_(kcal/mol)> (1)
189.644471195257

>  <r_j_Entropy_(cal/mol/K)_298.15K_1.00E+00atm> (1)
108.993154573617

>  <r_j_Enthalpy_(kcal/mol)_298.15K_1.00E+00atm> (1)
8.58415093494495

>  <r_j_Free_Energy_(kcal/mol)_298.15K_1.00E+00atm> (1)
-23.9121581011789

>  <r_j_Internal_Energy_(kcal/mol)_298.15K_1.00E+00atm> (1)
7.99166534611768

>  <r_j_Heat_Capacity_(cal/mol/K)_298.15K_1.00E+00atm> (1)
48.200568907967

>  <r_j_ln(Q)_298.15K_1.00E+00atm> (1)
40.3590543839369

>  <r_j_Total_Internal_Energy_(au)_298.15K_1.00E+00atm> (1)
-394.184502044216

>  <r_j_Total_Enthalpy_(au)_298.15K_1.00E+00atm> (1)
-394.183557858323

>  <r_j_Total_Free_Energy_(au)_298.15K_1.00E+00atm> (1)
-394.235344023457

>  <r_lp_tautomer_probability> (1)
1

>  <r_epik_Ionization_Penalty> (1)
  0.0000

>  <r_epik_Ionization_Penalty_Charging> (1)
  0.0000

>  <r_epik_Ionization_Penalty_Neutral> (1)
  0.0000

>  <r_epik_State_Penalty> (1)
  0.0000

>  <r_epik_Charging_Adjusted_Penalty> (1)
0

>  <i_epik_Tot_Q> (1)
0

>  <i_epik_Tot_abs_Q> (1)
0

>  <s_lp_Force_Field> (1)
S-OPLS

>  <r_lp_Energy> (1)
5.24726

>  <b_lp_Chiralities_Consistent> (1)
1

$$$$
