2758_Eucalyptol
                    3D
 Schrodinger Suite 2021-3.
 29 30  0  0  1  0            999 V2000
   -0.0421   -0.0472   -0.0062 C   0  0  0  0  0  0
    1.4914    0.0215    0.0021 C   0  0  0  0  0  0
    2.0577    0.7615   -1.2409 C   0  0  0  0  0  0
    3.5998    0.7322   -1.2128 C   0  0  0  0  0  0
    4.0608   -0.7466   -1.0873 C   0  0  0  0  0  0
    2.8294   -1.6743   -1.1234 C   0  0  0  0  0  0
    1.9769   -1.3463   -0.0088 O   0  0  0  0  0  0
    2.0366   -1.4523   -2.4276 C   0  0  0  0  0  0
    1.6130    0.0395   -2.5295 C   0  0  0  0  0  0
    3.2075   -3.1355   -0.9252 C   0  0  0  0  0  0
    1.9573    0.6524    1.3217 C   0  0  0  0  0  0
   -0.4832    0.9556    0.0018 H   0  0  0  0  0  0
   -0.3868   -0.5837    0.8824 H   0  0  0  0  0  0
   -0.4134   -0.5867   -0.8797 H   0  0  0  0  0  0
    1.6928    1.7950   -1.2339 H   0  0  0  0  0  0
    3.9797    1.1854   -2.1350 H   0  0  0  0  0  0
    3.9919    1.3373   -0.3912 H   0  0  0  0  0  0
    4.7537   -1.0205   -1.8909 H   0  0  0  0  0  0
    4.5813   -0.9173   -0.1392 H   0  0  0  0  0  0
    2.6452   -1.7562   -3.2867 H   0  0  0  0  0  0
    1.1607   -2.1089   -2.4032 H   0  0  0  0  0  0
    0.5346    0.1325   -2.6826 H   0  0  0  0  0  0
    2.0873    0.5250   -3.3894 H   0  0  0  0  0  0
    3.8619   -3.4797   -1.7323 H   0  0  0  0  0  0
    2.3088   -3.7591   -0.9109 H   0  0  0  0  0  0
    3.7277   -3.2644    0.0285 H   0  0  0  0  0  0
    1.6257    1.6936    1.4012 H   0  0  0  0  0  0
    3.0444    0.6223    1.4175 H   0  0  0  0  0  0
    1.5378    0.0908    2.1613 H   0  0  0  0  0  0
  1  2  1  0  0  0
  1 12  1  0  0  0
  1 13  1  0  0  0
  1 14  1  0  0  0
  2  7  1  0  0  0
  2  3  1  0  0  0
  2 11  1  0  0  0
  3  9  1  0  0  0
  3  4  1  0  0  0
  3 15  1  0  0  0
  4  5  1  0  0  0
  4 16  1  0  0  0
  4 17  1  0  0  0
  5  6  1  0  0  0
  5 18  1  0  0  0
  5 19  1  0  0  0
  6  7  1  0  0  0
  6  8  1  0  0  0
  6 10  1  0  0  0
  8  9  1  0  0  0
  8 20  1  0  0  0
  8 21  1  0  0  0
  9 22  1  0  0  0
  9 23  1  0  0  0
 10 24  1  0  0  0
 10 25  1  0  0  0
 10 26  1  0  0  0
 11 27  1  0  0  0
 11 28  1  0  0  0
 11 29  1  0  0  0
M  END
>  <i_m_Spin_multiplicity> (1)
1

>  <s_j_Task> (1)
Single Point

>  <s_j_QM_Method> (1)
DFT(b3lyp-d3)

>  <s_j_QM_Basis> (1)
cc-pvtz(-f)

>  <i_j_Number_of_canonical_orbitals> (1)
410

>  <i_j_Geometry_convergence_category> (1)
3

>  <r_j_Gas_Phase_Energy> (1)
-467.319377795436

>  <r_j_Final_Energy> (1)
-467.319377795436

>  <r_j_HOMO> (1)
-0.239716079047822

>  <r_j_LUMO> (1)
0.0267390654019468

>  <r_j_Polarizability> (1)
114.570969642997

>  <r_j_QM_Dipole_(debye)> (1)
1.3893073433755

>  <r_j_QM_Dipole_X_(debye)> (1)
0.341218365437071

>  <r_j_QM_Dipole_Y_(debye)> (1)
0.908239532051175

>  <r_j_QM_Dipole_Z_(debye)> (1)
-0.994407297773412

>  <r_j_Lowest_Frequency_(cm-1)> (1)
93.9131589349324

>  <r_j_Highest_Frequency_(cm-1)> (1)
3081.31966400541

>  <r_j_2nd_Lowest_Frequency_(cm-1)> (1)
213.636234108941

>  <i_j_Num_Negative_Frequencies> (1)
0

>  <r_j_Zero_Point_Energy_(kcal/mol)> (1)
165.954737650016

>  <r_j_Entropy_(cal/mol/K)_298.15K_1.00E+00atm> (1)
95.114782836122

>  <r_j_Enthalpy_(kcal/mol)_298.15K_1.00E+00atm> (1)
7.01239207632144

>  <r_j_Free_Energy_(kcal/mol)_298.15K_1.00E+00atm> (1)
-21.3460804262683

>  <r_j_Internal_Energy_(kcal/mol)_298.15K_1.00E+00atm> (1)
6.41990648749417

>  <r_j_Heat_Capacity_(cal/mol/K)_298.15K_1.00E+00atm> (1)
43.8854552207687

>  <r_j_ln(Q)_298.15K_1.00E+00atm> (1)
36.0280162569343

>  <r_j_Total_Internal_Energy_(au)_298.15K_1.00E+00atm> (1)
-467.044681312947

>  <r_j_Total_Enthalpy_(au)_298.15K_1.00E+00atm> (1)
-467.043737127054

>  <r_j_Total_Free_Energy_(au)_298.15K_1.00E+00atm> (1)
-467.088929229896

>  <r_lp_tautomer_probability> (1)
1

>  <r_epik_Ionization_Penalty> (1)
  0.0000

>  <r_epik_Ionization_Penalty_Charging> (1)
  0.0000

>  <r_epik_Ionization_Penalty_Neutral> (1)
  0.0000

>  <r_epik_State_Penalty> (1)
  0.0000

>  <r_epik_Charging_Adjusted_Penalty> (1)
0

>  <i_epik_Tot_Q> (1)
0

>  <i_epik_Tot_abs_Q> (1)
0

>  <s_lp_Force_Field> (1)
S-OPLS

>  <r_lp_Energy> (1)
19.2049

>  <b_lp_Chiralities_Consistent> (1)
1

$$$$
