28021_2,2,3-trimethylhexane
                    3D
 Schrodinger Suite 2021-3.
 29 28  0  0  1  0            999 V2000
   -2.1627    1.5174    0.0502 C   0  0  0  0  0  0
   -0.6389    1.4558    0.1928 C   0  0  0  0  0  0
   -0.0568    0.1066   -0.2521 C   0  0  0  0  0  0
    1.4838    0.0208   -0.1496 C   0  0  0  0  0  0
    2.1270    0.8053   -1.3080 C   0  0  0  0  0  0
    2.0183   -1.4485   -0.0229 C   0  0  0  0  0  0
    1.4872   -2.3489   -1.1556 C   0  0  0  0  0  0
    1.5857   -2.0416    1.3348 C   0  0  0  0  0  0
    3.5608   -1.4601   -0.0616 C   0  0  0  0  0  0
   -2.5599    2.4820    0.3832 H   0  0  0  0  0  0
   -2.6467    0.7337    0.6447 H   0  0  0  0  0  0
   -2.4666    1.3734   -0.9931 H   0  0  0  0  0  0
   -0.1891    2.2722   -0.3858 H   0  0  0  0  0  0
   -0.3595    1.6364    1.2398 H   0  0  0  0  0  0
   -0.5269   -0.6760    0.3544 H   0  0  0  0  0  0
   -0.3624   -0.0938   -1.2886 H   0  0  0  0  0  0
    1.7782    0.5237    0.7850 H   0  0  0  0  0  0
    1.9778    0.2943   -2.2657 H   0  0  0  0  0  0
    3.2010    0.9473   -1.1663 H   0  0  0  0  0  0
    1.6804    1.7997   -1.3995 H   0  0  0  0  0  0
    1.9111   -3.3559   -1.0712 H   0  0  0  0  0  0
    1.7588   -1.9612   -2.1429 H   0  0  0  0  0  0
    0.3979   -2.4460   -1.1197 H   0  0  0  0  0  0
    0.4981   -2.0916    1.4411 H   0  0  0  0  0  0
    1.9764   -1.4435    2.1660 H   0  0  0  0  0  0
    1.9702   -3.0612    1.4481 H   0  0  0  0  0  0
    3.9404   -2.4608    0.1733 H   0  0  0  0  0  0
    3.9809   -0.7635    0.6736 H   0  0  0  0  0  0
    3.9499   -1.1864   -1.0465 H   0  0  0  0  0  0
  1  2  1  0  0  0
  1 10  1  0  0  0
  1 11  1  0  0  0
  1 12  1  0  0  0
  2  3  1  0  0  0
  2 13  1  0  0  0
  2 14  1  0  0  0
  3  4  1  0  0  0
  3 15  1  0  0  0
  3 16  1  0  0  0
  4  5  1  0  0  0
  4  6  1  0  0  0
  4 17  1  0  0  0
  5 18  1  0  0  0
  5 19  1  0  0  0
  5 20  1  0  0  0
  6  7  1  0  0  0
  6  8  1  0  0  0
  6  9  1  0  0  0
  7 21  1  0  0  0
  7 22  1  0  0  0
  7 23  1  0  0  0
  8 24  1  0  0  0
  8 25  1  0  0  0
  8 26  1  0  0  0
  9 27  1  0  0  0
  9 28  1  0  0  0
  9 29  1  0  0  0
M  END
>  <i_m_Spin_multiplicity> (1)
1

>  <s_j_Task> (1)
Single Point

>  <s_j_QM_Method> (1)
DFT(b3lyp-d3)

>  <s_j_QM_Basis> (1)
cc-pvtz(-f)

>  <i_j_Number_of_canonical_orbitals> (1)
383

>  <i_j_Geometry_convergence_category> (1)
0

>  <r_j_Gas_Phase_Energy> (1)
-355.16821023129

>  <r_j_Final_Energy> (1)
-355.16821023129

>  <r_j_HOMO> (1)
-0.299051453078274

>  <r_j_LUMO> (1)
0.0209946250064343

>  <r_j_Polarizability> (1)
109.857564487657

>  <r_j_QM_Dipole_(debye)> (1)
0.0816223863546684

>  <r_j_QM_Dipole_X_(debye)> (1)
0.00535916369373488

>  <r_j_QM_Dipole_Y_(debye)> (1)
0.0662515071916105

>  <r_j_QM_Dipole_Z_(debye)> (1)
0.0473733164721924

>  <r_j_Lowest_Frequency_(cm-1)> (1)
91.3184620502415

>  <r_j_Highest_Frequency_(cm-1)> (1)
3068.75694379224

>  <r_j_2nd_Lowest_Frequency_(cm-1)> (1)
114.842668292278

>  <i_j_Num_Negative_Frequencies> (1)
0

>  <r_j_Zero_Point_Energy_(kcal/mol)> (1)
171.400319809065

>  <r_j_Entropy_(cal/mol/K)_298.15K_1.00E+00atm> (1)
99.8592414062732

>  <r_j_Enthalpy_(kcal/mol)_298.15K_1.00E+00atm> (1)
7.67394931788483

>  <r_j_Free_Energy_(kcal/mol)_298.15K_1.00E+00atm> (1)
-22.0990835073955

>  <r_j_Internal_Energy_(kcal/mol)_298.15K_1.00E+00atm> (1)
7.08146372905756

>  <r_j_Heat_Capacity_(cal/mol/K)_298.15K_1.00E+00atm> (1)
44.7189313641873

>  <r_j_ln(Q)_298.15K_1.00E+00atm> (1)
37.2989384452995

>  <r_j_Total_Internal_Energy_(au)_298.15K_1.00E+00atm> (1)
-354.883781402609

>  <r_j_Total_Enthalpy_(au)_298.15K_1.00E+00atm> (1)
-354.882837216717

>  <r_j_Total_Free_Energy_(au)_298.15K_1.00E+00atm> (1)
-354.930283564937

>  <r_lp_tautomer_probability> (1)
1

>  <r_epik_Ionization_Penalty> (1)
  0.0000

>  <r_epik_Ionization_Penalty_Charging> (1)
  0.0000

>  <r_epik_Ionization_Penalty_Neutral> (1)
  0.0000

>  <r_epik_State_Penalty> (1)
  0.0000

>  <r_epik_Charging_Adjusted_Penalty> (1)
0

>  <i_epik_Tot_Q> (1)
0

>  <i_epik_Tot_abs_Q> (1)
0

>  <s_lp_Force_Field> (1)
S-OPLS

>  <r_lp_Energy> (1)
9.61959

>  <b_lp_Chiralities_Consistent> (1)
1

$$$$
