28226_2,4,5-trimethylnaphthalene
                    3D
 Schrodinger Suite 2021-3.
 27 28  0  0  1  0            999 V2000
   -0.0440   -0.3077   -0.0004 C   0  0  0  0  0  0
    1.4550   -0.0420   -0.0001 C   0  0  0  0  0  0
    2.1116    1.2413    0.0000 C   0  0  0  0  0  0
    1.4761    2.5427    0.0001 C   0  0  0  0  0  0
    2.2582    3.6807    0.0001 C   0  0  0  0  0  0
    3.6739    3.6709   -0.0001 C   0  0  0  0  0  0
    4.2966    2.4507    0.0000 C   0  0  0  0  0  0
    3.5591    1.2362    0.0000 C   0  0  0  0  0  0
    4.2833    0.0187    0.0001 C   0  0  0  0  0  0
    3.6271   -1.1858    0.0002 C   0  0  0  0  0  0
    2.2232   -1.1972    0.0000 C   0  0  0  0  0  0
    4.4377    4.9713   -0.0002 C   0  0  0  0  0  0
   -0.0208    2.7807    0.0003 C   0  0  0  0  0  0
   -0.6739    0.5702   -0.0007 H   0  0  0  0  0  0
   -0.3155   -0.9020    0.8796 H   0  0  0  0  0  0
   -0.3151   -0.9023   -0.8802 H   0  0  0  0  0  0
    1.7590    4.6473    0.0001 H   0  0  0  0  0  0
    5.3827    2.3908   -0.0001 H   0  0  0  0  0  0
    5.3692    0.0613    0.0002 H   0  0  0  0  0  0
    4.1792   -2.1211    0.0003 H   0  0  0  0  0  0
    1.7077   -2.1549   -0.0001 H   0  0  0  0  0  0
    5.5183    4.8032   -0.0002 H   0  0  0  0  0  0
    4.1900    5.5754    0.8807 H   0  0  0  0  0  0
    4.1900    5.5753   -0.8812 H   0  0  0  0  0  0
   -0.2243    3.8547    0.0005 H   0  0  0  0  0  0
   -0.5089    2.3608    0.8854 H   0  0  0  0  0  0
   -0.5090    2.3610   -0.8848 H   0  0  0  0  0  0
  1  2  1  0  0  0
  1 14  1  0  0  0
  1 15  1  0  0  0
  1 16  1  0  0  0
  2 11  1  0  0  0
  2  3  2  0  0  0
  3  8  1  0  0  0
  3  4  1  0  0  0
  4  5  2  0  0  0
  4 13  1  0  0  0
  5  6  1  0  0  0
  5 17  1  0  0  0
  6  7  2  0  0  0
  6 12  1  0  0  0
  7  8  1  0  0  0
  7 18  1  0  0  0
  8  9  2  0  0  0
  9 10  1  0  0  0
  9 19  1  0  0  0
 10 11  2  0  0  0
 10 20  1  0  0  0
 11 21  1  0  0  0
 12 22  1  0  0  0
 12 23  1  0  0  0
 12 24  1  0  0  0
 13 25  1  0  0  0
 13 26  1  0  0  0
 13 27  1  0  0  0
M  END
>  <i_m_Spin_multiplicity> (1)
1

>  <s_j_Task> (1)
Single Point

>  <s_j_QM_Method> (1)
DFT(b3lyp-d3)

>  <s_j_QM_Basis> (1)
cc-pvtz(-f)

>  <i_j_Number_of_canonical_orbitals> (1)
414

>  <i_j_Geometry_convergence_category> (1)
0

>  <r_j_Gas_Phase_Energy> (1)
-504.005450403095

>  <r_j_Final_Energy> (1)
-504.005450403095

>  <r_j_HOMO> (1)
-0.199726803783137

>  <r_j_LUMO> (1)
-0.0326654003678131

>  <r_j_Polarizability> (1)
153.940808199325

>  <r_j_QM_Dipole_(debye)> (1)
0.654724709298044

>  <r_j_QM_Dipole_X_(debye)> (1)
-0.511119702363348

>  <r_j_QM_Dipole_Y_(debye)> (1)
0.409171190450378

>  <r_j_QM_Dipole_Z_(debye)> (1)
-0.000178120272102575

>  <r_j_Lowest_Frequency_(cm-1)> (1)
-83.9641583584979

>  <r_j_Highest_Frequency_(cm-1)> (1)
3204.16725386773

>  <r_j_2nd_Lowest_Frequency_(cm-1)> (1)
68.6473684057979

>  <i_j_Num_Negative_Frequencies> (1)
1

>  <r_j_Zero_Point_Energy_(kcal/mol)> (1)
144.055862234471

>  <r_j_Entropy_(cal/mol/K)_298.15K_1.00E+00atm> (1)
98.6366424658652

>  <r_j_Enthalpy_(kcal/mol)_298.15K_1.00E+00atm> (1)
7.2014342123493

>  <r_j_Free_Energy_(kcal/mol)_298.15K_1.00E+00atm> (1)
-22.2070807388484

>  <r_j_Internal_Energy_(kcal/mol)_298.15K_1.00E+00atm> (1)
6.60894862352203

>  <r_j_Heat_Capacity_(cal/mol/K)_298.15K_1.00E+00atm> (1)
43.9210692897794

>  <r_j_ln(Q)_298.15K_1.00E+00atm> (1)
37.4812166871494

>  <r_j_Total_Internal_Energy_(au)_298.15K_1.00E+00atm> (1)
-503.765350742355

>  <r_j_Total_Enthalpy_(au)_298.15K_1.00E+00atm> (1)
-503.764406556463

>  <r_j_Total_Free_Energy_(au)_298.15K_1.00E+00atm> (1)
-503.811272008471

>  <r_lp_tautomer_probability> (1)
1

>  <r_epik_Ionization_Penalty> (1)
  0.0000

>  <r_epik_Ionization_Penalty_Charging> (1)
  0.0000

>  <r_epik_Ionization_Penalty_Neutral> (1)
  0.0000

>  <r_epik_State_Penalty> (1)
  0.0000

>  <r_epik_Charging_Adjusted_Penalty> (1)
0

>  <i_epik_Tot_Q> (1)
0

>  <i_epik_Tot_abs_Q> (1)
0

>  <s_lp_Force_Field> (1)
S-OPLS

>  <r_lp_Energy> (1)
30.3612

>  <b_lp_Chiralities_Consistent> (1)
1

$$$$
