28453_2,6-dimethylundecane
                    3D
 Schrodinger Suite 2021-3.
 41 40  0  0  1  0            999 V2000
   -4.8230   -2.2329   -3.7187 C   0  0  0  0  0  0
   -4.2617   -1.3921   -2.5682 C   0  0  0  0  0  0
   -2.7300   -1.4105   -2.5016 C   0  0  0  0  0  0
   -2.1616   -0.5791   -1.3456 C   0  0  0  0  0  0
   -0.6279   -0.5867   -1.2981 C   0  0  0  0  0  0
   -0.0092    0.0973   -0.0629 C   0  0  0  0  0  0
   -0.4239    1.5732    0.0427 C   0  0  0  0  0  0
    1.5287   -0.0153   -0.0528 C   0  0  0  0  0  0
    2.0869   -1.4435    0.0043 C   0  0  0  0  0  0
    3.6096   -1.4716    0.1899 C   0  0  0  0  0  0
    4.2533   -2.8682    0.1023 C   0  0  0  0  0  0
    3.7304   -3.8212    1.1872 C   0  0  0  0  0  0
    5.7830   -2.7589    0.1768 C   0  0  0  0  0  0
   -5.9174   -2.2018   -3.7445 H   0  0  0  0  0  0
   -4.5212   -3.2824   -3.6232 H   0  0  0  0  0  0
   -4.4559   -1.8719   -4.6864 H   0  0  0  0  0  0
   -4.6062   -0.3537   -2.6689 H   0  0  0  0  0  0
   -4.6686   -1.7549   -1.6144 H   0  0  0  0  0  0
   -2.3832   -2.4500   -2.4091 H   0  0  0  0  0  0
   -2.3209   -1.0399   -3.4528 H   0  0  0  0  0  0
   -2.5325    0.4499   -1.4340 H   0  0  0  0  0  0
   -2.5562   -0.9645   -0.3940 H   0  0  0  0  0  0
   -0.2907   -1.6300   -1.3369 H   0  0  0  0  0  0
   -0.2326   -0.1057   -2.2057 H   0  0  0  0  0  0
   -0.3863   -0.4259    0.8303 H   0  0  0  0  0  0
   -0.1138    2.1265   -0.8527 H   0  0  0  0  0  0
    0.0464    2.0525    0.9082 H   0  0  0  0  0  0
   -1.5062    1.6909    0.1488 H   0  0  0  0  0  0
    1.9304    0.4981   -0.9393 H   0  0  0  0  0  0
    1.9102    0.5420    0.8144 H   0  0  0  0  0  0
    1.5978   -1.9834    0.8257 H   0  0  0  0  0  0
    1.8325   -1.9874   -0.9145 H   0  0  0  0  0  0
    4.0689   -0.8267   -0.5728 H   0  0  0  0  0  0
    3.8669   -1.0208    1.1603 H   0  0  0  0  0  0
    3.9911   -3.2941   -0.8783 H   0  0  0  0  0  0
    3.9289   -3.4135    2.1865 H   0  0  0  0  0  0
    4.2234   -4.7974    1.1231 H   0  0  0  0  0  0
    2.6526   -3.9891    1.1030 H   0  0  0  0  0  0
    6.0949   -2.3389    1.1414 H   0  0  0  0  0  0
    6.1773   -2.1084   -0.6117 H   0  0  0  0  0  0
    6.2588   -3.7402    0.0733 H   0  0  0  0  0  0
  1  2  1  0  0  0
  1 14  1  0  0  0
  1 15  1  0  0  0
  1 16  1  0  0  0
  2  3  1  0  0  0
  2 17  1  0  0  0
  2 18  1  0  0  0
  3  4  1  0  0  0
  3 19  1  0  0  0
  3 20  1  0  0  0
  4  5  1  0  0  0
  4 21  1  0  0  0
  4 22  1  0  0  0
  5  6  1  0  0  0
  5 23  1  0  0  0
  5 24  1  0  0  0
  6  7  1  0  0  0
  6  8  1  0  0  0
  6 25  1  0  0  0
  7 26  1  0  0  0
  7 27  1  0  0  0
  7 28  1  0  0  0
  8  9  1  0  0  0
  8 29  1  0  0  0
  8 30  1  0  0  0
  9 10  1  0  0  0
  9 31  1  0  0  0
  9 32  1  0  0  0
 10 11  1  0  0  0
 10 33  1  0  0  0
 10 34  1  0  0  0
 11 12  1  0  0  0
 11 13  1  0  0  0
 11 35  1  0  0  0
 12 36  1  0  0  0
 12 37  1  0  0  0
 12 38  1  0  0  0
 13 39  1  0  0  0
 13 40  1  0  0  0
 13 41  1  0  0  0
M  END
>  <i_m_Spin_multiplicity> (1)
1

>  <s_j_Task> (1)
Single Point

>  <s_j_QM_Method> (1)
DFT(b3lyp-d3)

>  <s_j_QM_Basis> (1)
cc-pvtz(-f)

>  <i_j_Number_of_canonical_orbitals> (1)
547

>  <i_j_Geometry_convergence_category> (1)
0

>  <r_j_Gas_Phase_Energy> (1)
-512.488523197853

>  <r_j_Final_Energy> (1)
-512.488523197853

>  <r_j_HOMO> (1)
-0.296365548977442

>  <r_j_LUMO> (1)
0.0162368519233074

>  <r_j_Polarizability> (1)
161.418594512054

>  <r_j_QM_Dipole_(debye)> (1)
0.0975657666117823

>  <r_j_QM_Dipole_X_(debye)> (1)
-0.0807040011592465

>  <r_j_QM_Dipole_Y_(debye)> (1)
-0.0534953590187409

>  <r_j_QM_Dipole_Z_(debye)> (1)
-0.0120078963556956

>  <r_j_Lowest_Frequency_(cm-1)> (1)
49.9848253282949

>  <r_j_Highest_Frequency_(cm-1)> (1)
3055.50565117694

>  <r_j_2nd_Lowest_Frequency_(cm-1)> (1)
74.7187680694979

>  <i_j_Num_Negative_Frequencies> (1)
0

>  <r_j_Zero_Point_Energy_(kcal/mol)> (1)
243.050519972122

>  <r_j_Entropy_(cal/mol/K)_298.15K_1.00E+00atm> (1)
125.592903894634

>  <r_j_Enthalpy_(kcal/mol)_298.15K_1.00E+00atm> (1)
10.8431549175445

>  <r_j_Free_Energy_(kcal/mol)_298.15K_1.00E+00atm> (1)
-26.6023693786406

>  <r_j_Internal_Energy_(kcal/mol)_298.15K_1.00E+00atm> (1)
10.2506693287173

>  <r_j_Heat_Capacity_(cal/mol/K)_298.15K_1.00E+00atm> (1)
62.9170374011055

>  <r_j_ln(Q)_298.15K_1.00E+00atm> (1)
44.8996057968186

>  <r_j_Total_Internal_Energy_(au)_298.15K_1.00E+00atm> (1)
-512.084862055814

>  <r_j_Total_Enthalpy_(au)_298.15K_1.00E+00atm> (1)
-512.083917869922

>  <r_j_Total_Free_Energy_(au)_298.15K_1.00E+00atm> (1)
-512.14359111166

>  <r_lp_tautomer_probability> (1)
1

>  <r_epik_Ionization_Penalty> (1)
  0.0000

>  <r_epik_Ionization_Penalty_Charging> (1)
  0.0000

>  <r_epik_Ionization_Penalty_Neutral> (1)
  0.0000

>  <r_epik_State_Penalty> (1)
  0.0000

>  <r_epik_Charging_Adjusted_Penalty> (1)
0

>  <i_epik_Tot_Q> (1)
0

>  <i_epik_Tot_abs_Q> (1)
0

>  <s_lp_Force_Field> (1)
S-OPLS

>  <r_lp_Energy> (1)
7.050425

>  <b_lp_Chiralities_Consistent> (1)
1

$$$$
