28457_2,6-dimethylnonane
                    3D
 Schrodinger Suite 2021-3.
 35 34  0  0  1  0            999 V2000
   -2.8072   -1.4614   -2.4470 C   0  0  0  0  0  0
   -2.2310   -0.6089   -1.3119 C   0  0  0  0  0  0
   -0.6962   -0.6141   -1.2934 C   0  0  0  0  0  0
   -0.0528    0.0998   -0.0884 C   0  0  0  0  0  0
   -0.4596    1.5799   -0.0150 C   0  0  0  0  0  0
    1.4847   -0.0193   -0.1018 C   0  0  0  0  0  0
    2.0384   -1.4480   -0.0178 C   0  0  0  0  0  0
    3.5632   -1.4777    0.1495 C   0  0  0  0  0  0
    4.2012   -2.8781    0.0840 C   0  0  0  0  0  0
    3.6854   -3.8074    1.1926 C   0  0  0  0  0  0
    5.7320   -2.7730    0.1415 C   0  0  0  0  0  0
   -3.9021   -1.4406   -2.4509 H   0  0  0  0  0  0
   -2.4932   -2.5076   -2.3541 H   0  0  0  0  0  0
   -2.4634   -1.1006   -3.4234 H   0  0  0  0  0  0
   -2.6037    0.4177   -1.4094 H   0  0  0  0  0  0
   -2.6046   -0.9796   -0.3472 H   0  0  0  0  0  0
   -0.3602   -1.6585   -1.3139 H   0  0  0  0  0  0
   -0.3197   -0.1561   -2.2209 H   0  0  0  0  0  0
   -0.4161   -0.3976    0.8251 H   0  0  0  0  0  0
   -0.1621    2.1080   -0.9297 H   0  0  0  0  0  0
    0.0271    2.0797    0.8297 H   0  0  0  0  0  0
   -1.5394    1.7057    0.1059 H   0  0  0  0  0  0
    1.8733    0.4696   -1.0077 H   0  0  0  0  0  0
    1.8830    0.5582    0.7444 H   0  0  0  0  0  0
    1.5579   -1.9665    0.8222 H   0  0  0  0  0  0
    1.7704   -2.0124   -0.9202 H   0  0  0  0  0  0
    4.0153   -0.8509   -0.6324 H   0  0  0  0  0  0
    3.8339   -1.0073    1.1069 H   0  0  0  0  0  0
    3.9280   -3.3227   -0.8853 H   0  0  0  0  0  0
    3.8935   -3.3800    2.1817 H   0  0  0  0  0  0
    4.1753   -4.7861    1.1441 H   0  0  0  0  0  0
    2.6064   -3.9741    1.1211 H   0  0  0  0  0  0
    6.0547   -2.3357    1.0947 H   0  0  0  0  0  0
    6.1208   -2.1393   -0.6633 H   0  0  0  0  0  0
    6.2033   -3.7579    0.0523 H   0  0  0  0  0  0
  1  2  1  0  0  0
  1 12  1  0  0  0
  1 13  1  0  0  0
  1 14  1  0  0  0
  2  3  1  0  0  0
  2 15  1  0  0  0
  2 16  1  0  0  0
  3  4  1  0  0  0
  3 17  1  0  0  0
  3 18  1  0  0  0
  4  5  1  0  0  0
  4  6  1  0  0  0
  4 19  1  0  0  0
  5 20  1  0  0  0
  5 21  1  0  0  0
  5 22  1  0  0  0
  6  7  1  0  0  0
  6 23  1  0  0  0
  6 24  1  0  0  0
  7  8  1  0  0  0
  7 25  1  0  0  0
  7 26  1  0  0  0
  8  9  1  0  0  0
  8 27  1  0  0  0
  8 28  1  0  0  0
  9 10  1  0  0  0
  9 11  1  0  0  0
  9 29  1  0  0  0
 10 30  1  0  0  0
 10 31  1  0  0  0
 10 32  1  0  0  0
 11 33  1  0  0  0
 11 34  1  0  0  0
 11 35  1  0  0  0
M  END
>  <i_m_Spin_multiplicity> (1)
1

>  <s_j_Task> (1)
Single Point

>  <s_j_QM_Method> (1)
DFT(b3lyp-d3)

>  <s_j_QM_Basis> (1)
cc-pvtz(-f)

>  <i_j_Number_of_canonical_orbitals> (1)
466

>  <i_j_Geometry_convergence_category> (1)
3

>  <r_j_Gas_Phase_Energy> (1)
-433.829557524379

>  <r_j_Final_Energy> (1)
-433.829557524379

>  <r_j_HOMO> (1)
-0.300971855240006

>  <r_j_LUMO> (1)
0.0161862199072714

>  <r_j_Polarizability> (1)
136.35492062918

>  <r_j_QM_Dipole_(debye)> (1)
0.0958560638505439

>  <r_j_QM_Dipole_X_(debye)> (1)
-0.0779041084328848

>  <r_j_QM_Dipole_Y_(debye)> (1)
-0.0551991682201755

>  <r_j_QM_Dipole_Z_(debye)> (1)
-0.0085080370237582

>  <r_j_Lowest_Frequency_(cm-1)> (1)
68.2888083372901

>  <r_j_Highest_Frequency_(cm-1)> (1)
3055.91849969555

>  <r_j_2nd_Lowest_Frequency_(cm-1)> (1)
75.0621124565002

>  <i_j_Num_Negative_Frequencies> (1)
0

>  <r_j_Zero_Point_Energy_(kcal/mol)> (1)
207.330840042347

>  <r_j_Entropy_(cal/mol/K)_298.15K_1.00E+00atm> (1)
113.793251953134

>  <r_j_Enthalpy_(kcal/mol)_298.15K_1.00E+00atm> (1)
9.2949559578916

>  <r_j_Free_Energy_(kcal/mol)_298.15K_1.00E+00atm> (1)
-24.6325021119352

>  <r_j_Internal_Energy_(kcal/mol)_298.15K_1.00E+00atm> (1)
8.70247036906432

>  <r_j_Heat_Capacity_(cal/mol/K)_298.15K_1.00E+00atm> (1)
53.4058852645206

>  <r_j_ln(Q)_298.15K_1.00E+00atm> (1)
41.5748544377107

>  <r_j_Total_Internal_Energy_(au)_298.15K_1.00E+00atm> (1)
-433.4852865281

>  <r_j_Total_Enthalpy_(au)_298.15K_1.00E+00atm> (1)
-433.484342342208

>  <r_j_Total_Free_Energy_(au)_298.15K_1.00E+00atm> (1)
-433.538409188513

>  <r_lp_tautomer_probability> (1)
1

>  <r_epik_Ionization_Penalty> (1)
  0.0000

>  <r_epik_Ionization_Penalty_Charging> (1)
  0.0000

>  <r_epik_Ionization_Penalty_Neutral> (1)
  0.0000

>  <r_epik_State_Penalty> (1)
  0.0000

>  <r_epik_Charging_Adjusted_Penalty> (1)
0

>  <i_epik_Tot_Q> (1)
0

>  <i_epik_Tot_abs_Q> (1)
0

>  <s_lp_Force_Field> (1)
S-OPLS

>  <r_lp_Energy> (1)
6.06544

>  <b_lp_Chiralities_Consistent> (1)
1

$$$$
