28458_3,7-dimethylnonane
                    3D
 Schrodinger Suite 2021-3.
 35 34  0  0  1  0            999 V2000
   -0.6730    3.8175    1.2038 C   0  0  0  0  0  0
   -0.1710    2.3699    1.2526 C   0  0  0  0  0  0
   -0.6311    1.4891    0.0737 C   0  0  0  0  0  0
   -2.1622    1.3817    0.0060 C   0  0  0  0  0  0
   -0.0082    0.0799    0.1325 C   0  0  0  0  0  0
    1.5204    0.0304    0.0085 C   0  0  0  0  0  0
    2.0562   -1.4052   -0.0783 C   0  0  0  0  0  0
    3.5920   -1.5298   -0.0459 C   0  0  0  0  0  0
    4.2512   -0.7778   -1.2124 C   0  0  0  0  0  0
    4.0483   -3.0031   -0.0478 C   0  0  0  0  0  0
    3.6135   -3.8198    1.1742 C   0  0  0  0  0  0
   -0.2340    4.4116    2.0118 H   0  0  0  0  0  0
   -1.7606    3.8799    1.3060 H   0  0  0  0  0  0
   -0.4008    4.2952    0.2551 H   0  0  0  0  0  0
    0.9245    2.3853    1.2824 H   0  0  0  0  0  0
   -0.4948    1.8980    2.1918 H   0  0  0  0  0  0
   -0.2834    1.9686   -0.8554 H   0  0  0  0  0  0
   -2.5604    0.9466    0.9313 H   0  0  0  0  0  0
   -2.4745    0.7388   -0.8241 H   0  0  0  0  0  0
   -2.6382    2.3562   -0.1359 H   0  0  0  0  0  0
   -0.3156   -0.4082    1.0696 H   0  0  0  0  0  0
   -0.4415   -0.5252   -0.6763 H   0  0  0  0  0  0
    1.8213    0.6015   -0.8791 H   0  0  0  0  0  0
    1.9877    0.5294    0.8672 H   0  0  0  0  0  0
    1.6305   -1.9781    0.7550 H   0  0  0  0  0  0
    1.6803   -1.8805   -0.9971 H   0  0  0  0  0  0
    3.9439   -1.0749    0.8940 H   0  0  0  0  0  0
    3.8929   -1.1664   -2.1741 H   0  0  0  0  0  0
    5.3400   -0.8965   -1.1914 H   0  0  0  0  0  0
    4.0364    0.2943   -1.1858 H   0  0  0  0  0  0
    3.6816   -3.4864   -0.9649 H   0  0  0  0  0  0
    5.1441   -3.0247   -0.1139 H   0  0  0  0  0  0
    4.0526   -4.8224    1.1508 H   0  0  0  0  0  0
    2.5271   -3.9411    1.2246 H   0  0  0  0  0  0
    3.9368   -3.3368    2.1039 H   0  0  0  0  0  0
  1  2  1  0  0  0
  1 12  1  0  0  0
  1 13  1  0  0  0
  1 14  1  0  0  0
  2  3  1  0  0  0
  2 15  1  0  0  0
  2 16  1  0  0  0
  3  4  1  0  0  0
  3  5  1  0  0  0
  3 17  1  0  0  0
  4 18  1  0  0  0
  4 19  1  0  0  0
  4 20  1  0  0  0
  5  6  1  0  0  0
  5 21  1  0  0  0
  5 22  1  0  0  0
  6  7  1  0  0  0
  6 23  1  0  0  0
  6 24  1  0  0  0
  7  8  1  0  0  0
  7 25  1  0  0  0
  7 26  1  0  0  0
  8  9  1  0  0  0
  8 10  1  0  0  0
  8 27  1  0  0  0
  9 28  1  0  0  0
  9 29  1  0  0  0
  9 30  1  0  0  0
 10 11  1  0  0  0
 10 31  1  0  0  0
 10 32  1  0  0  0
 11 33  1  0  0  0
 11 34  1  0  0  0
 11 35  1  0  0  0
M  END
>  <i_m_Spin_multiplicity> (1)
1

>  <s_j_Task> (1)
Single Point

>  <s_j_QM_Method> (1)
DFT(b3lyp-d3)

>  <s_j_QM_Basis> (1)
cc-pvtz(-f)

>  <i_j_Number_of_canonical_orbitals> (1)
466

>  <i_j_Geometry_convergence_category> (1)
0

>  <r_j_Gas_Phase_Energy> (1)
-433.828240744964

>  <r_j_Final_Energy> (1)
-433.828240744964

>  <r_j_HOMO> (1)
-0.298227222627855

>  <r_j_LUMO> (1)
0.0187233742174196

>  <r_j_Polarizability> (1)
135.922231392891

>  <r_j_QM_Dipole_(debye)> (1)
0.123444533088052

>  <r_j_QM_Dipole_X_(debye)> (1)
0.121074845565613

>  <r_j_QM_Dipole_Y_(debye)> (1)
0.0102505485326547

>  <r_j_QM_Dipole_Z_(debye)> (1)
0.0217798249618688

>  <r_j_Lowest_Frequency_(cm-1)> (1)
55.1230769788871

>  <r_j_Highest_Frequency_(cm-1)> (1)
3060.31214874241

>  <r_j_2nd_Lowest_Frequency_(cm-1)> (1)
80.5029324409703

>  <i_j_Num_Negative_Frequencies> (1)
0

>  <r_j_Zero_Point_Energy_(kcal/mol)> (1)
207.394184351306

>  <r_j_Entropy_(cal/mol/K)_298.15K_1.00E+00atm> (1)
113.662506134498

>  <r_j_Enthalpy_(kcal/mol)_298.15K_1.00E+00atm> (1)
9.30092664236911

>  <r_j_Free_Energy_(kcal/mol)_298.15K_1.00E+00atm> (1)
-24.5875495616316

>  <r_j_Internal_Energy_(kcal/mol)_298.15K_1.00E+00atm> (1)
8.70844105354184

>  <r_j_Heat_Capacity_(cal/mol/K)_298.15K_1.00E+00atm> (1)
53.4643139637906

>  <r_j_ln(Q)_298.15K_1.00E+00atm> (1)
41.4989833091105

>  <r_j_Total_Internal_Energy_(au)_298.15K_1.00E+00atm> (1)
-433.483859288211

>  <r_j_Total_Enthalpy_(au)_298.15K_1.00E+00atm> (1)
-433.482915102319

>  <r_j_Total_Free_Energy_(au)_298.15K_1.00E+00atm> (1)
-433.536919827067

>  <r_lp_tautomer_probability> (1)
1

>  <r_epik_Ionization_Penalty> (1)
  0.0000

>  <r_epik_Ionization_Penalty_Charging> (1)
  0.0000

>  <r_epik_Ionization_Penalty_Neutral> (1)
  0.0000

>  <r_epik_State_Penalty> (1)
  0.0000

>  <r_epik_Charging_Adjusted_Penalty> (1)
0

>  <i_epik_Tot_Q> (1)
0

>  <i_epik_Tot_abs_Q> (1)
0

>  <s_lp_Force_Field> (1)
S-OPLS

>  <r_lp_Energy> (1)
7.00238

>  <b_lp_Chiralities_Consistent> (1)
1

$$$$
