28456_2,5-dimethylnonane
                    3D
 Schrodinger Suite 2021-3.
 35 34  0  0  1  0            999 V2000
   -4.3033   -1.5104   -2.4697 C   0  0  0  0  0  0
   -2.7727   -1.4591   -2.4743 C   0  0  0  0  0  0
   -2.1951   -0.6682   -1.2940 C   0  0  0  0  0  0
   -0.6624   -0.6032   -1.3126 C   0  0  0  0  0  0
   -0.0167    0.0471   -0.0732 C   0  0  0  0  0  0
   -0.4876    1.4961    0.1250 C   0  0  0  0  0  0
    1.5235    0.0030   -0.1432 C   0  0  0  0  0  0
    2.1338   -1.4053   -0.1712 C   0  0  0  0  0  0
    3.6616   -1.4460    0.0235 C   0  0  0  0  0  0
    4.4092   -0.7001   -1.0916 C   0  0  0  0  0  0
    4.1512   -2.8978    0.1196 C   0  0  0  0  0  0
   -4.6905   -2.0828   -3.3191 H   0  0  0  0  0  0
   -4.7316   -0.5027   -2.5233 H   0  0  0  0  0  0
   -4.6789   -1.9789   -1.5525 H   0  0  0  0  0  0
   -2.3698   -2.4811   -2.4572 H   0  0  0  0  0  0
   -2.4222   -1.0113   -3.4144 H   0  0  0  0  0  0
   -2.6186    0.3442   -1.3061 H   0  0  0  0  0  0
   -2.5292   -1.1272   -0.3520 H   0  0  0  0  0  0
   -0.2793   -1.6254   -1.4210 H   0  0  0  0  0  0
   -0.3325   -0.0587   -2.2105 H   0  0  0  0  0  0
   -0.3275   -0.5347    0.8092 H   0  0  0  0  0  0
   -0.2467    2.1047   -0.7557 H   0  0  0  0  0  0
    0.0050    1.9543    0.9897 H   0  0  0  0  0  0
   -1.5671    1.5598    0.2889 H   0  0  0  0  0  0
    1.8478    0.5719   -1.0254 H   0  0  0  0  0  0
    1.9256    0.5401    0.7277 H   0  0  0  0  0  0
    1.6637   -2.0089    0.6185 H   0  0  0  0  0  0
    1.8938   -1.9050   -1.1194 H   0  0  0  0  0  0
    3.8903   -0.9469    0.9776 H   0  0  0  0  0  0
    4.1751   -1.1363   -2.0709 H   0  0  0  0  0  0
    5.4935   -0.7662   -0.9495 H   0  0  0  0  0  0
    4.1439    0.3607   -1.1265 H   0  0  0  0  0  0
    3.9452   -3.4393   -0.8122 H   0  0  0  0  0  0
    3.6526   -3.4353    0.9337 H   0  0  0  0  0  0
    5.2312   -2.9435    0.2975 H   0  0  0  0  0  0
  1  2  1  0  0  0
  1 12  1  0  0  0
  1 13  1  0  0  0
  1 14  1  0  0  0
  2  3  1  0  0  0
  2 15  1  0  0  0
  2 16  1  0  0  0
  3  4  1  0  0  0
  3 17  1  0  0  0
  3 18  1  0  0  0
  4  5  1  0  0  0
  4 19  1  0  0  0
  4 20  1  0  0  0
  5  6  1  0  0  0
  5  7  1  0  0  0
  5 21  1  0  0  0
  6 22  1  0  0  0
  6 23  1  0  0  0
  6 24  1  0  0  0
  7  8  1  0  0  0
  7 25  1  0  0  0
  7 26  1  0  0  0
  8  9  1  0  0  0
  8 27  1  0  0  0
  8 28  1  0  0  0
  9 10  1  0  0  0
  9 11  1  0  0  0
  9 29  1  0  0  0
 10 30  1  0  0  0
 10 31  1  0  0  0
 10 32  1  0  0  0
 11 33  1  0  0  0
 11 34  1  0  0  0
 11 35  1  0  0  0
M  END
>  <i_m_Spin_multiplicity> (1)
1

>  <s_j_Task> (1)
Single Point

>  <s_j_QM_Method> (1)
DFT(b3lyp-d3)

>  <s_j_QM_Basis> (1)
cc-pvtz(-f)

>  <i_j_Number_of_canonical_orbitals> (1)
465

>  <i_j_Geometry_convergence_category> (1)
3

>  <r_j_Gas_Phase_Energy> (1)
-433.829702272248

>  <r_j_Final_Energy> (1)
-433.829702272248

>  <r_j_HOMO> (1)
-0.298909573804292

>  <r_j_LUMO> (1)
0.0258030908648577

>  <r_j_Polarizability> (1)
136.117213592472

>  <r_j_QM_Dipole_(debye)> (1)
0.103224320597075

>  <r_j_QM_Dipole_X_(debye)> (1)
0.018657719770773

>  <r_j_QM_Dipole_Y_(debye)> (1)
-0.0158114957061553

>  <r_j_QM_Dipole_Z_(debye)> (1)
0.100285325243613

>  <r_j_Lowest_Frequency_(cm-1)> (1)
70.5641240401356

>  <r_j_Highest_Frequency_(cm-1)> (1)
3056.40128476428

>  <r_j_2nd_Lowest_Frequency_(cm-1)> (1)
73.2038536070132

>  <i_j_Num_Negative_Frequencies> (1)
0

>  <r_j_Zero_Point_Energy_(kcal/mol)> (1)
207.337883984226

>  <r_j_Entropy_(cal/mol/K)_298.15K_1.00E+00atm> (1)
113.860863417628

>  <r_j_Enthalpy_(kcal/mol)_298.15K_1.00E+00atm> (1)
9.30068848988266

>  <r_j_Free_Energy_(kcal/mol)_298.15K_1.00E+00atm> (1)
-24.6469279380831

>  <r_j_Internal_Energy_(kcal/mol)_298.15K_1.00E+00atm> (1)
8.70820290105538

>  <r_j_Heat_Capacity_(cal/mol/K)_298.15K_1.00E+00atm> (1)
53.4006485395923

>  <r_j_ln(Q)_298.15K_1.00E+00atm> (1)
41.5992024158217

>  <r_j_Total_Internal_Energy_(au)_298.15K_1.00E+00atm> (1)
-433.485410915361

>  <r_j_Total_Enthalpy_(au)_298.15K_1.00E+00atm> (1)
-433.484466729469

>  <r_j_Total_Free_Energy_(au)_298.15K_1.00E+00atm> (1)
-433.538565700163

>  <r_lp_tautomer_probability> (1)
1

>  <r_epik_Ionization_Penalty> (1)
  0.0000

>  <r_epik_Ionization_Penalty_Charging> (1)
  0.0000

>  <r_epik_Ionization_Penalty_Neutral> (1)
  0.0000

>  <r_epik_State_Penalty> (1)
  0.0000

>  <r_epik_Charging_Adjusted_Penalty> (1)
0

>  <i_epik_Tot_Q> (1)
0

>  <i_epik_Tot_abs_Q> (1)
0

>  <s_lp_Force_Field> (1)
S-OPLS

>  <r_lp_Energy> (1)
6.048313

>  <b_lp_Chiralities_Consistent> (1)
1

$$$$
