28469_3-methyl dodecane
                    3D
 Schrodinger Suite 2021-3.
 41 40  0  0  1  0            999 V2000
   -4.7618    4.4616    0.1010 C   0  0  0  0  0  0
   -4.2073    3.0342    0.0779 C   0  0  0  0  0  0
   -2.6752    2.9840    0.0420 C   0  0  0  0  0  0
   -2.1156    1.5575    0.0165 C   0  0  0  0  0  0
   -0.5843    1.4971   -0.0138 C   0  0  0  0  0  0
   -0.0382    0.0653   -0.0435 C   0  0  0  0  0  0
    1.4924   -0.0108   -0.0654 C   0  0  0  0  0  0
    2.0226   -1.4491   -0.1012 C   0  0  0  0  0  0
    3.5542   -1.5275   -0.1207 C   0  0  0  0  0  0
    4.1436   -2.9508   -0.0469 C   0  0  0  0  0  0
    5.6640   -2.8781    0.1615 C   0  0  0  0  0  0
    3.7772   -3.7887   -1.2882 C   0  0  0  0  0  0
    4.2355   -5.2506   -1.2314 C   0  0  0  0  0  0
   -5.8565    4.4685    0.1275 H   0  0  0  0  0  0
   -4.4459    5.0215   -0.7868 H   0  0  0  0  0  0
   -4.4033    5.0094    0.9802 H   0  0  0  0  0  0
   -4.5654    2.4857    0.9599 H   0  0  0  0  0  0
   -4.6062    2.4983   -0.7943 H   0  0  0  0  0  0
   -2.3143    3.5333   -0.8395 H   0  0  0  0  0  0
   -2.2740    3.5179    0.9156 H   0  0  0  0  0  0
   -2.4821    1.0085    0.8960 H   0  0  0  0  0  0
   -2.5166    1.0264   -0.8588 H   0  0  0  0  0  0
   -0.2148    2.0463   -0.8917 H   0  0  0  0  0  0
   -0.1814    2.0230    0.8636 H   0  0  0  0  0  0
   -0.4152   -0.4846    0.8309 H   0  0  0  0  0  0
   -0.4397   -0.4571   -0.9238 H   0  0  0  0  0  0
    1.8726    0.5391   -0.9383 H   0  0  0  0  0  0
    1.8960    0.5064    0.8169 H   0  0  0  0  0  0
    1.6439   -1.9970    0.7740 H   0  0  0  0  0  0
    1.6044   -1.9556   -0.9802 H   0  0  0  0  0  0
    3.9348   -1.0297   -1.0253 H   0  0  0  0  0  0
    3.9419   -0.9457    0.7272 H   0  0  0  0  0  0
    3.7042   -3.4483    0.8326 H   0  0  0  0  0  0
    6.1520   -2.4218   -0.7090 H   0  0  0  0  0  0
    6.1072   -3.8668    0.3119 H   0  0  0  0  0  0
    5.9118   -2.2694    1.0377 H   0  0  0  0  0  0
    2.6897   -3.7731   -1.4240 H   0  0  0  0  0  0
    4.2023   -3.3027   -2.1785 H   0  0  0  0  0  0
    3.8633   -5.8113   -2.0950 H   0  0  0  0  0  0
    3.8593   -5.7447   -0.3278 H   0  0  0  0  0  0
    5.3260   -5.3406   -1.2286 H   0  0  0  0  0  0
  1  2  1  0  0  0
  1 14  1  0  0  0
  1 15  1  0  0  0
  1 16  1  0  0  0
  2  3  1  0  0  0
  2 17  1  0  0  0
  2 18  1  0  0  0
  3  4  1  0  0  0
  3 19  1  0  0  0
  3 20  1  0  0  0
  4  5  1  0  0  0
  4 21  1  0  0  0
  4 22  1  0  0  0
  5  6  1  0  0  0
  5 23  1  0  0  0
  5 24  1  0  0  0
  6  7  1  0  0  0
  6 25  1  0  0  0
  6 26  1  0  0  0
  7  8  1  0  0  0
  7 27  1  0  0  0
  7 28  1  0  0  0
  8  9  1  0  0  0
  8 29  1  0  0  0
  8 30  1  0  0  0
  9 10  1  0  0  0
  9 31  1  0  0  0
  9 32  1  0  0  0
 10 11  1  0  0  0
 10 12  1  0  0  0
 10 33  1  0  0  0
 11 34  1  0  0  0
 11 35  1  0  0  0
 11 36  1  0  0  0
 12 13  1  0  0  0
 12 37  1  0  0  0
 12 38  1  0  0  0
 13 39  1  0  0  0
 13 40  1  0  0  0
 13 41  1  0  0  0
M  END
>  <i_m_Spin_multiplicity> (1)
1

>  <s_j_Task> (1)
Single Point

>  <s_j_QM_Method> (1)
DFT(b3lyp-d3)

>  <s_j_QM_Basis> (1)
cc-pvtz(-f)

>  <i_j_Number_of_canonical_orbitals> (1)
547

>  <i_j_Geometry_convergence_category> (1)
0

>  <r_j_Gas_Phase_Energy> (1)
-512.48763373155

>  <r_j_Final_Energy> (1)
-512.48763373155

>  <r_j_HOMO> (1)
-0.290860014040814

>  <r_j_LUMO> (1)
0.0182500871647042

>  <r_j_Polarizability> (1)
162.575071346824

>  <r_j_QM_Dipole_(debye)> (1)
0.117847682700031

>  <r_j_QM_Dipole_X_(debye)> (1)
-0.106878612673901

>  <r_j_QM_Dipole_Y_(debye)> (1)
-0.0472850445882466

>  <r_j_QM_Dipole_Z_(debye)> (1)
0.0151381316204121

>  <r_j_Lowest_Frequency_(cm-1)> (1)
45.1792440080133

>  <r_j_Highest_Frequency_(cm-1)> (1)
3059.72673052402

>  <r_j_2nd_Lowest_Frequency_(cm-1)> (1)
54.2055753688504

>  <i_j_Num_Negative_Frequencies> (1)
0

>  <r_j_Zero_Point_Energy_(kcal/mol)> (1)
243.247436437325

>  <r_j_Entropy_(cal/mol/K)_298.15K_1.00E+00atm> (1)
126.133105509534

>  <r_j_Enthalpy_(kcal/mol)_298.15K_1.00E+00atm> (1)
10.891367872532

>  <r_j_Free_Energy_(kcal/mol)_298.15K_1.00E+00atm> (1)
-26.7152175351355

>  <r_j_Internal_Energy_(kcal/mol)_298.15K_1.00E+00atm> (1)
10.2988822837048

>  <r_j_Heat_Capacity_(cal/mol/K)_298.15K_1.00E+00atm> (1)
62.4522947637063

>  <r_j_ln(Q)_298.15K_1.00E+00atm> (1)
45.090071453069

>  <r_j_Total_Internal_Energy_(au)_298.15K_1.00E+00atm> (1)
-512.083581950911

>  <r_j_Total_Enthalpy_(au)_298.15K_1.00E+00atm> (1)
-512.082637765019

>  <r_j_Total_Free_Energy_(au)_298.15K_1.00E+00atm> (1)
-512.142567673977

>  <r_lp_tautomer_probability> (1)
1

>  <r_epik_Ionization_Penalty> (1)
  0.0000

>  <r_epik_Ionization_Penalty_Charging> (1)
  0.0000

>  <r_epik_Ionization_Penalty_Neutral> (1)
  0.0000

>  <r_epik_State_Penalty> (1)
  0.0000

>  <r_epik_Charging_Adjusted_Penalty> (1)
0

>  <i_epik_Tot_Q> (1)
0

>  <i_epik_Tot_abs_Q> (1)
0

>  <s_lp_Force_Field> (1)
S-OPLS

>  <r_lp_Energy> (1)
6.866409

>  <b_lp_Chiralities_Consistent> (1)
1

$$$$
