28474_Dimethylundecane
                    3D
 Schrodinger Suite 2021-3.
 41 40  0  0  1  0            999 V2000
   -4.3385    2.7946    0.0092 C   0  0  0  0  0  0
   -2.8077    2.8456    0.0169 C   0  0  0  0  0  0
   -2.1603    1.4559    0.0158 C   0  0  0  0  0  0
   -0.6272    1.5007    0.0318 C   0  0  0  0  0  0
    0.0013    0.1007    0.0240 C   0  0  0  0  0  0
    1.5499    0.0121    0.1003 C   0  0  0  0  0  0
    2.0509    0.6406    1.4160 C   0  0  0  0  0  0
    1.9243   -1.4835    0.0892 C   0  0  0  0  0  0
    2.1701    0.7331   -1.1246 C   0  0  0  0  0  0
    3.6947    0.6505   -1.2817 C   0  0  0  0  0  0
    4.2022    1.4399   -2.4950 C   0  0  0  0  0  0
    5.7232    1.3683   -2.6738 C   0  0  0  0  0  0
    6.2224    2.1576   -3.8878 C   0  0  0  0  0  0
   -4.7756    3.7987    0.0092 H   0  0  0  0  0  0
   -4.7192    2.2648    0.8901 H   0  0  0  0  0  0
   -4.7107    2.2684   -0.8774 H   0  0  0  0  0  0
   -2.4535    3.4097   -0.8568 H   0  0  0  0  0  0
   -2.4624    3.4038    0.8981 H   0  0  0  0  0  0
   -2.5180    0.8884    0.8871 H   0  0  0  0  0  0
   -2.5008    0.8975   -0.8683 H   0  0  0  0  0  0
   -0.2816    2.0769   -0.8358 H   0  0  0  0  0  0
   -0.2988    2.0566    0.9195 H   0  0  0  0  0  0
   -0.4115   -0.4685    0.8695 H   0  0  0  0  0  0
   -0.3301   -0.4267   -0.8823 H   0  0  0  0  0  0
    3.1209    0.4626    1.5611 H   0  0  0  0  0  0
    1.5267    0.2081    2.2759 H   0  0  0  0  0  0
    1.8912    1.7235    1.4357 H   0  0  0  0  0  0
    3.0008   -1.6344    0.2143 H   0  0  0  0  0  0
    1.6249   -1.9581   -0.8526 H   0  0  0  0  0  0
    1.4218   -2.0145    0.9057 H   0  0  0  0  0  0
    1.7026    0.3298   -2.0350 H   0  0  0  0  0  0
    1.8904    1.7937   -1.0864 H   0  0  0  0  0  0
    4.1879    1.0326   -0.3785 H   0  0  0  0  0  0
    4.0096   -0.3956   -1.3839 H   0  0  0  0  0  0
    3.7119    1.0651   -3.4053 H   0  0  0  0  0  0
    3.8976    2.4922   -2.4000 H   0  0  0  0  0  0
    6.2115    1.7439   -1.7641 H   0  0  0  0  0  0
    6.0267    0.3166   -2.7683 H   0  0  0  0  0  0
    7.3104    2.0915   -3.9924 H   0  0  0  0  0  0
    5.9591    3.2184   -3.8034 H   0  0  0  0  0  0
    5.7744    1.7803   -4.8144 H   0  0  0  0  0  0
  1  2  1  0  0  0
  1 14  1  0  0  0
  1 15  1  0  0  0
  1 16  1  0  0  0
  2  3  1  0  0  0
  2 17  1  0  0  0
  2 18  1  0  0  0
  3  4  1  0  0  0
  3 19  1  0  0  0
  3 20  1  0  0  0
  4  5  1  0  0  0
  4 21  1  0  0  0
  4 22  1  0  0  0
  5  6  1  0  0  0
  5 23  1  0  0  0
  5 24  1  0  0  0
  6  7  1  0  0  0
  6  8  1  0  0  0
  6  9  1  0  0  0
  7 25  1  0  0  0
  7 26  1  0  0  0
  7 27  1  0  0  0
  8 28  1  0  0  0
  8 29  1  0  0  0
  8 30  1  0  0  0
  9 10  1  0  0  0
  9 31  1  0  0  0
  9 32  1  0  0  0
 10 11  1  0  0  0
 10 33  1  0  0  0
 10 34  1  0  0  0
 11 12  1  0  0  0
 11 35  1  0  0  0
 11 36  1  0  0  0
 12 13  1  0  0  0
 12 37  1  0  0  0
 12 38  1  0  0  0
 13 39  1  0  0  0
 13 40  1  0  0  0
 13 41  1  0  0  0
M  END
>  <i_m_Spin_multiplicity> (1)
1

>  <s_j_Task> (1)
Single Point

>  <s_j_QM_Method> (1)
DFT(b3lyp-d3)

>  <s_j_QM_Basis> (1)
cc-pvtz(-f)

>  <i_j_Number_of_canonical_orbitals> (1)
547

>  <i_j_Geometry_convergence_category> (1)
0

>  <r_j_Gas_Phase_Energy> (1)
-512.487552897301

>  <r_j_Final_Energy> (1)
-512.487552897301

>  <r_j_HOMO> (1)
-0.284572558919984

>  <r_j_LUMO> (1)
0.0305936885640111

>  <r_j_Polarizability> (1)
160.901377647024

>  <r_j_QM_Dipole_(debye)> (1)
0.085887367968677

>  <r_j_QM_Dipole_X_(debye)> (1)
0.0681287108268746

>  <r_j_QM_Dipole_Y_(debye)> (1)
0.0474160541721238

>  <r_j_QM_Dipole_Z_(debye)> (1)
0.0220643727398095

>  <r_j_Lowest_Frequency_(cm-1)> (1)
50.9257927455437

>  <r_j_Highest_Frequency_(cm-1)> (1)
3053.96292875708

>  <r_j_2nd_Lowest_Frequency_(cm-1)> (1)
78.4970143853577

>  <i_j_Num_Negative_Frequencies> (1)
0

>  <r_j_Zero_Point_Energy_(kcal/mol)> (1)
242.979463222266

>  <r_j_Entropy_(cal/mol/K)_298.15K_1.00E+00atm> (1)
125.078451158533

>  <r_j_Enthalpy_(kcal/mol)_298.15K_1.00E+00atm> (1)
10.8515683523648

>  <r_j_Free_Energy_(kcal/mol)_298.15K_1.00E+00atm> (1)
-26.4405718605519

>  <r_j_Internal_Energy_(kcal/mol)_298.15K_1.00E+00atm> (1)
10.2590827635375

>  <r_j_Heat_Capacity_(cal/mol/K)_298.15K_1.00E+00atm> (1)
63.2937754789003

>  <r_j_ln(Q)_298.15K_1.00E+00atm> (1)
44.6265231748279

>  <r_j_Total_Internal_Energy_(au)_298.15K_1.00E+00atm> (1)
-512.083991583739

>  <r_j_Total_Enthalpy_(au)_298.15K_1.00E+00atm> (1)
-512.083047397846

>  <r_j_Total_Free_Energy_(au)_298.15K_1.00E+00atm> (1)
-512.142476206487

>  <r_lp_tautomer_probability> (1)
1

>  <r_epik_Ionization_Penalty> (1)
  0.0000

>  <r_epik_Ionization_Penalty_Charging> (1)
  0.0000

>  <r_epik_Ionization_Penalty_Neutral> (1)
  0.0000

>  <r_epik_State_Penalty> (1)
  0.0000

>  <r_epik_Charging_Adjusted_Penalty> (1)
0

>  <i_epik_Tot_Q> (1)
0

>  <i_epik_Tot_abs_Q> (1)
0

>  <s_lp_Force_Field> (1)
S-OPLS

>  <r_lp_Energy> (1)
9.675318

>  <b_lp_Chiralities_Consistent> (1)
1

$$$$
