29303_1-Hexacosene
                    3D
 Schrodinger Suite 2021-3.
 78 77  0  0  1  0            999 V2000
  -11.1994    8.4400    1.1346 C   0  0  0  0  0  0
  -10.4402    7.1183    1.2835 C   0  0  0  0  0  0
   -9.0686    7.1295    0.5975 C   0  0  0  0  0  0
   -8.3098    5.8061    0.7432 C   0  0  0  0  0  0
   -6.9283    5.8059    0.0780 C   0  0  0  0  0  0
   -6.1899    4.4722    0.2374 C   0  0  0  0  0  0
   -4.7898    4.4525   -0.3873 C   0  0  0  0  0  0
   -4.0790    3.1070   -0.2025 C   0  0  0  0  0  0
   -2.6539    3.0630   -0.7663 C   0  0  0  0  0  0
   -1.9760    1.7062   -0.5433 C   0  0  0  0  0  0
   -0.5232    1.6353   -1.0281 C   0  0  0  0  0  0
    0.1184    0.2699   -0.7550 C   0  0  0  0  0  0
    1.5974    0.1720   -1.1470 C   0  0  0  0  0  0
    2.2001   -1.1979   -0.8146 C   0  0  0  0  0  0
    3.7002   -1.3207   -1.1062 C   0  0  0  0  0  0
    4.2624   -2.6906   -0.7087 C   0  0  0  0  0  0
    5.7769   -2.8348   -0.8972 C   0  0  0  0  0  0
    6.2972   -4.2007   -0.4343 C   0  0  0  0  0  0
    7.8192   -4.3614   -0.5229 C   0  0  0  0  0  0
    8.2985   -5.7214   -0.0020 C   0  0  0  0  0  0
    9.8218   -5.8923    0.0007 C   0  0  0  0  0  0
   10.2644   -7.2474    0.5652 C   0  0  0  0  0  0
   11.7849   -7.4202    0.6460 C   0  0  0  0  0  0
   12.1958   -8.7806    1.2404 C   0  0  0  0  0  0
   13.6858   -8.9578    1.3288 C   0  0  0  0  0  0
   14.3745   -9.1382    2.4560 C   0  0  0  0  0  0
  -12.1726    8.4042    1.6354 H   0  0  0  0  0  0
  -11.3758    8.6765    0.0789 H   0  0  0  0  0  0
  -10.6316    9.2716    1.5677 H   0  0  0  0  0  0
  -10.3076    6.8884    2.3496 H   0  0  0  0  0  0
  -11.0436    6.2986    0.8701 H   0  0  0  0  0  0
   -9.1972    7.3618   -0.4696 H   0  0  0  0  0  0
   -8.4614    7.9465    1.0135 H   0  0  0  0  0  0
   -8.1951    5.5710    1.8113 H   0  0  0  0  0  0
   -8.9160    4.9924    0.3196 H   0  0  0  0  0  0
   -7.0359    6.0400   -0.9908 H   0  0  0  0  0  0
   -6.3181    6.6145    0.5054 H   0  0  0  0  0  0
   -6.1082    4.2320    1.3074 H   0  0  0  0  0  0
   -6.7955    3.6682   -0.2053 H   0  0  0  0  0  0
   -4.8610    4.6873   -1.4590 H   0  0  0  0  0  0
   -4.1807    5.2518    0.0587 H   0  0  0  0  0  0
   -4.0459    2.8640    0.8695 H   0  0  0  0  0  0
   -4.6790    2.3136   -0.6711 H   0  0  0  0  0  0
   -2.6735    3.2943   -1.8408 H   0  0  0  0  0  0
   -2.0519    3.8538   -0.2960 H   0  0  0  0  0  0
   -2.0044    1.4656    0.5295 H   0  0  0  0  0  0
   -2.5636    0.9217   -1.0415 H   0  0  0  0  0  0
   -0.4793    1.8572   -2.1038 H   0  0  0  0  0  0
    0.0646    2.4206   -0.5313 H   0  0  0  0  0  0
    0.0199    0.0387    0.3157 H   0  0  0  0  0  0
   -0.4498   -0.5096   -1.2828 H   0  0  0  0  0  0
    1.7122    0.3779   -2.2207 H   0  0  0  0  0  0
    2.1643    0.9560   -0.6245 H   0  0  0  0  0  0
    2.0281   -1.4123    0.2503 H   0  0  0  0  0  0
    1.6569   -1.9774   -1.3681 H   0  0  0  0  0  0
    3.8884   -1.1370   -2.1735 H   0  0  0  0  0  0
    4.2414   -0.5334   -0.5619 H   0  0  0  0  0  0
    4.0174   -2.8820    0.3462 H   0  0  0  0  0  0
    3.7479   -3.4749   -1.2823 H   0  0  0  0  0  0
    6.0375   -2.6763   -1.9533 H   0  0  0  0  0  0
    6.2896   -2.0410   -0.3351 H   0  0  0  0  0  0
    5.9835   -4.3662    0.6066 H   0  0  0  0  0  0
    5.8124   -4.9930   -1.0228 H   0  0  0  0  0  0
    8.1472   -4.2265   -1.5634 H   0  0  0  0  0  0
    8.3026   -3.5602    0.0544 H   0  0  0  0  0  0
    7.9230   -5.8634    1.0218 H   0  0  0  0  0  0
    7.8429   -6.5219   -0.6023 H   0  0  0  0  0  0
   10.2097   -5.7736   -1.0210 H   0  0  0  0  0  0
   10.2763   -5.0859    0.5937 H   0  0  0  0  0  0
    9.8363   -7.3741    1.5701 H   0  0  0  0  0  0
    9.8372   -8.0542   -0.0477 H   0  0  0  0  0  0
   12.2237   -7.3097   -0.3557 H   0  0  0  0  0  0
   12.2160   -6.6176    1.2587 H   0  0  0  0  0  0
   11.7496   -8.8945    2.2365 H   0  0  0  0  0  0
   11.7682   -9.5783    0.6143 H   0  0  0  0  0  0
   14.2243   -8.9129    0.3805 H   0  0  0  0  0  0
   13.8794   -9.1853    3.4235 H   0  0  0  0  0  0
   15.4549   -9.2496    2.4565 H   0  0  0  0  0  0
  1  2  1  0  0  0
  1 27  1  0  0  0
  1 28  1  0  0  0
  1 29  1  0  0  0
  2  3  1  0  0  0
  2 30  1  0  0  0
  2 31  1  0  0  0
  3  4  1  0  0  0
  3 32  1  0  0  0
  3 33  1  0  0  0
  4  5  1  0  0  0
  4 34  1  0  0  0
  4 35  1  0  0  0
  5  6  1  0  0  0
  5 36  1  0  0  0
  5 37  1  0  0  0
  6  7  1  0  0  0
  6 38  1  0  0  0
  6 39  1  0  0  0
  7  8  1  0  0  0
  7 40  1  0  0  0
  7 41  1  0  0  0
  8  9  1  0  0  0
  8 42  1  0  0  0
  8 43  1  0  0  0
  9 10  1  0  0  0
  9 44  1  0  0  0
  9 45  1  0  0  0
 10 11  1  0  0  0
 10 46  1  0  0  0
 10 47  1  0  0  0
 11 12  1  0  0  0
 11 48  1  0  0  0
 11 49  1  0  0  0
 12 13  1  0  0  0
 12 50  1  0  0  0
 12 51  1  0  0  0
 13 14  1  0  0  0
 13 52  1  0  0  0
 13 53  1  0  0  0
 14 15  1  0  0  0
 14 54  1  0  0  0
 14 55  1  0  0  0
 15 16  1  0  0  0
 15 56  1  0  0  0
 15 57  1  0  0  0
 16 17  1  0  0  0
 16 58  1  0  0  0
 16 59  1  0  0  0
 17 18  1  0  0  0
 17 60  1  0  0  0
 17 61  1  0  0  0
 18 19  1  0  0  0
 18 62  1  0  0  0
 18 63  1  0  0  0
 19 20  1  0  0  0
 19 64  1  0  0  0
 19 65  1  0  0  0
 20 21  1  0  0  0
 20 66  1  0  0  0
 20 67  1  0  0  0
 21 22  1  0  0  0
 21 68  1  0  0  0
 21 69  1  0  0  0
 22 23  1  0  0  0
 22 70  1  0  0  0
 22 71  1  0  0  0
 23 24  1  0  0  0
 23 72  1  0  0  0
 23 73  1  0  0  0
 24 25  1  0  0  0
 24 74  1  0  0  0
 24 75  1  0  0  0
 25 26  2  0  0  0
 25 76  1  0  0  0
 26 77  1  0  0  0
 26 78  1  0  0  0
M  END
>  <i_m_Spin_multiplicity> (1)
1

>  <s_j_Task> (1)
Single Point

>  <s_j_QM_Method> (1)
DFT(b3lyp-d3)

>  <s_j_QM_Basis> (1)
cc-pvtz(-f)

>  <i_j_Number_of_canonical_orbitals> (1)
1057

>  <i_j_Geometry_convergence_category> (1)
0

>  <r_j_Gas_Phase_Energy> (1)
-1022.53212679677

>  <r_j_Final_Energy> (1)
-1022.53212679677

>  <r_j_HOMO> (1)
-0.267625371741236

>  <r_j_LUMO> (1)
-0.0490943807673801

>  <r_j_Polarizability> (1)
327.612959075473

>  <r_j_QM_Dipole_(debye)> (1)
0.474803212200518

>  <r_j_QM_Dipole_X_(debye)> (1)
-0.382212669433805

>  <r_j_QM_Dipole_Y_(debye)> (1)
0.115307269044294

>  <r_j_QM_Dipole_Z_(debye)> (1)
-0.257013227958721

>  <r_j_Lowest_Frequency_(cm-1)> (1)
18.1766036801035

>  <r_j_Highest_Frequency_(cm-1)> (1)
3166.6127118167

>  <r_j_2nd_Lowest_Frequency_(cm-1)> (1)
28.7416719016152

>  <i_j_Num_Negative_Frequencies> (1)
0

>  <r_j_Zero_Point_Energy_(kcal/mol)> (1)
460.822772265973

>  <r_j_Entropy_(cal/mol/K)_298.15K_1.00E+00atm> (1)
196.100390375227

>  <r_j_Enthalpy_(kcal/mol)_298.15K_1.00E+00atm> (1)
20.6367155304652

>  <r_j_Free_Energy_(kcal/mol)_298.15K_1.00E+00atm> (1)
-37.8306158599088

>  <r_j_Internal_Energy_(kcal/mol)_298.15K_1.00E+00atm> (1)
20.0442299416379

>  <r_j_Heat_Capacity_(cal/mol/K)_298.15K_1.00E+00atm> (1)
121.873332722331

>  <r_j_ln(Q)_298.15K_1.00E+00atm> (1)
63.8506937101849

>  <r_j_Total_Internal_Energy_(au)_298.15K_1.00E+00atm> (1)
-1021.76581644578

>  <r_j_Total_Enthalpy_(au)_298.15K_1.00E+00atm> (1)
-1021.76487225989

>  <r_j_Total_Free_Energy_(au)_298.15K_1.00E+00atm> (1)
-1021.85804588385

>  <r_lp_tautomer_probability> (1)
1

>  <r_epik_Ionization_Penalty> (1)
  0.0000

>  <r_epik_Ionization_Penalty_Charging> (1)
  0.0000

>  <r_epik_Ionization_Penalty_Neutral> (1)
  0.0000

>  <r_epik_State_Penalty> (1)
  0.0000

>  <r_epik_Charging_Adjusted_Penalty> (1)
0

>  <i_epik_Tot_Q> (1)
0

>  <i_epik_Tot_abs_Q> (1)
0

>  <s_lp_Force_Field> (1)
S-OPLS

>  <r_lp_Energy> (1)
11.9502

>  <b_lp_Chiralities_Consistent> (1)
1

$$$$
