2969_Decanoic acid
                    3D
 Schrodinger Suite 2021-3.
 31 30  0  0  1  0            999 V2000
   -4.1628    3.0346   -0.0098 C   0  0  0  0  0  0
   -2.6328    2.9584   -0.0110 C   0  0  0  0  0  0
   -2.0977    1.5214    0.0036 C   0  0  0  0  0  0
   -0.5670    1.4385    0.0044 C   0  0  0  0  0  0
   -0.0225    0.0054   -0.0011 C   0  0  0  0  0  0
    1.5091   -0.0684   -0.0013 C   0  0  0  0  0  0
    2.0576   -1.4984   -0.0270 C   0  0  0  0  0  0
    3.5890   -1.5668   -0.0187 C   0  0  0  0  0  0
    4.1166   -3.0042   -0.0103 C   0  0  0  0  0  0
    3.8253   -3.8122    1.3149 C   0  0  0  0  0  0
    4.1522   -5.0210    1.2655 O   0  0  0  0  0  0
    3.3179   -3.1551    2.2649 O   0  5  0  0  0  0
   -4.5189    4.0711   -0.0232 H   0  0  0  0  0  0
   -4.5799    2.5497    0.8807 H   0  0  0  0  0  0
   -4.5825    2.5261   -0.8860 H   0  0  0  0  0  0
   -2.2400    3.4806   -0.8946 H   0  0  0  0  0  0
   -2.2375    3.4997    0.8598 H   0  0  0  0  0  0
   -2.4915    0.9964    0.8859 H   0  0  0  0  0  0
   -2.4918    0.9801   -0.8692 H   0  0  0  0  0  0
   -0.1764    1.9780   -0.8715 H   0  0  0  0  0  0
   -0.1768    1.9716    0.8837 H   0  0  0  0  0  0
   -0.4092   -0.5368    0.8732 H   0  0  0  0  0  0
   -0.4130   -0.5259   -0.8819 H   0  0  0  0  0  0
    1.8948    0.4955   -0.8660 H   0  0  0  0  0  0
    1.8931    0.4480    0.8907 H   0  0  0  0  0  0
    1.7142   -2.0537    0.8524 H   0  0  0  0  0  0
    1.6698   -2.0177   -0.9182 H   0  0  0  0  0  0
    3.9862   -1.0027   -0.8806 H   0  0  0  0  0  0
    3.9454   -1.0749    0.8947 H   0  0  0  0  0  0
    3.7049   -3.5763   -0.8546 H   0  0  0  0  0  0
    5.2066   -3.0077   -0.1560 H   0  0  0  0  0  0
  1  2  1  0  0  0
  1 13  1  0  0  0
  1 14  1  0  0  0
  1 15  1  0  0  0
  2  3  1  0  0  0
  2 16  1  0  0  0
  2 17  1  0  0  0
  3  4  1  0  0  0
  3 18  1  0  0  0
  3 19  1  0  0  0
  4  5  1  0  0  0
  4 20  1  0  0  0
  4 21  1  0  0  0
  5  6  1  0  0  0
  5 22  1  0  0  0
  5 23  1  0  0  0
  6  7  1  0  0  0
  6 24  1  0  0  0
  6 25  1  0  0  0
  7  8  1  0  0  0
  7 26  1  0  0  0
  7 27  1  0  0  0
  8  9  1  0  0  0
  8 28  1  0  0  0
  8 29  1  0  0  0
  9 10  1  0  0  0
  9 30  1  0  0  0
  9 31  1  0  0  0
 10 11  2  0  0  0
 10 12  1  0  0  0
M  END
>  <i_m_Spin_multiplicity> (1)
1

>  <s_j_Task> (1)
Single Point

>  <s_j_QM_Method> (1)
DFT(b3lyp-d3)

>  <s_j_QM_Basis> (1)
cc-pvtz(-f)

>  <i_j_Number_of_canonical_orbitals> (1)
444

>  <i_j_Geometry_convergence_category> (1)
3

>  <r_j_Gas_Phase_Energy> (1)
-543.245600593986

>  <r_j_Final_Energy> (1)
-543.245600593986

>  <r_j_HOMO> (1)
-0.0589565429912522

>  <r_j_LUMO> (1)
0.111507102468679

>  <r_j_Polarizability> (1)
134.565130633203

>  <r_j_QM_Dipole_(debye)> (1)
18.4882371028471

>  <r_j_QM_Dipole_X_(debye)> (1)
-11.1443176131432

>  <r_j_QM_Dipole_Y_(debye)> (1)
13.7562448691193

>  <r_j_QM_Dipole_Z_(debye)> (1)
-5.32774091049014

>  <r_j_Lowest_Frequency_(cm-1)> (1)
47.5220170563184

>  <r_j_Highest_Frequency_(cm-1)> (1)
3035.75248284125

>  <r_j_2nd_Lowest_Frequency_(cm-1)> (1)
72.0852238706203

>  <i_j_Num_Negative_Frequencies> (1)
0

>  <r_j_Zero_Point_Energy_(kcal/mol)> (1)
172.977527662857

>  <r_j_Entropy_(cal/mol/K)_298.15K_1.00E+00atm> (1)
115.150680719397

>  <r_j_Enthalpy_(kcal/mol)_298.15K_1.00E+00atm> (1)
9.16862756172695

>  <r_j_Free_Energy_(kcal/mol)_298.15K_1.00E+00atm> (1)
-25.1635478947612

>  <r_j_Internal_Energy_(kcal/mol)_298.15K_1.00E+00atm> (1)
8.57614197289968

>  <r_j_Heat_Capacity_(cal/mol/K)_298.15K_1.00E+00atm> (1)
50.8151279922151

>  <r_j_ln(Q)_298.15K_1.00E+00atm> (1)
42.4711560403828

>  <r_j_Total_Internal_Energy_(au)_298.15K_1.00E+00atm> (1)
-542.956276403173

>  <r_j_Total_Enthalpy_(au)_298.15K_1.00E+00atm> (1)
-542.95533221728

>  <r_j_Total_Free_Energy_(au)_298.15K_1.00E+00atm> (1)
-543.010044021799

>  <r_epik_Ionization_Penalty> (1)
  0.0049

>  <r_epik_Ionization_Penalty_Charging> (1)
  0.0049

>  <r_epik_Ionization_Penalty_Neutral> (1)
  0.0000

>  <r_epik_State_Penalty> (1)
  0.0035

>  <r_epik_Charging_Adjusted_Penalty> (1)
0.00839651679040807

>  <i_epik_Tot_Q> (1)
-1

>  <i_epik_Tot_abs_Q> (1)
1

>  <s_lp_Force_Field> (1)
S-OPLS

>  <r_lp_Energy> (1)
3.625094

>  <b_lp_Chiralities_Consistent> (1)
1

$$$$
