3015374_1-Heneicosene
                    3D
 Schrodinger Suite 2021-3.
 63 62  0  0  1  0            999 V2000
  -10.2223    0.5599    1.8267 C   0  0  0  0  0  0
   -9.2325    1.5114    1.1482 C   0  0  0  0  0  0
   -7.7821    1.2928    1.5958 C   0  0  0  0  0  0
   -6.7884    2.2363    0.9092 C   0  0  0  0  0  0
   -5.3332    2.0248    1.3434 C   0  0  0  0  0  0
   -4.3552    2.9553    0.6140 C   0  0  0  0  0  0
   -2.8902    2.8291    1.0581 C   0  0  0  0  0  0
   -2.2697    1.4454    0.8182 C   0  0  0  0  0  0
   -0.7523    1.4218    1.0354 C   0  0  0  0  0  0
   -0.1305    0.0302    0.8692 C   0  0  0  0  0  0
    1.4015    0.0418    0.9264 C   0  0  0  0  0  0
    2.0244   -1.3586    0.8392 C   0  0  0  0  0  0
    3.5464   -1.3606    0.6305 C   0  0  0  0  0  0
    4.3528   -0.6964    1.7542 C   0  0  0  0  0  0
    5.8651   -0.7459    1.5068 C   0  0  0  0  0  0
    6.6921   -0.0329    2.5829 C   0  0  0  0  0  0
    8.1973   -0.0506    2.2918 C   0  0  0  0  0  0
    9.0351    0.6998    3.3328 C   0  0  0  0  0  0
   10.5392    0.6996    3.0003 C   0  0  0  0  0  0
   11.3658    1.4215    4.0277 C   0  0  0  0  0  0
   12.1064    2.5061    3.7987 C   0  0  0  0  0  0
  -11.2487    0.7387    1.4895 H   0  0  0  0  0  0
  -10.2029    0.6817    2.9160 H   0  0  0  0  0  0
   -9.9766   -0.4857    1.6080 H   0  0  0  0  0  0
   -9.2951    1.3905    0.0579 H   0  0  0  0  0  0
   -9.5209    2.5513    1.3543 H   0  0  0  0  0  0
   -7.7146    1.4201    2.6859 H   0  0  0  0  0  0
   -7.4936    0.2509    1.3949 H   0  0  0  0  0  0
   -6.8617    2.1062   -0.1803 H   0  0  0  0  0  0
   -7.0793    3.2779    1.1081 H   0  0  0  0  0  0
   -5.2470    2.1822    2.4285 H   0  0  0  0  0  0
   -5.0555    0.9777    1.1652 H   0  0  0  0  0  0
   -4.4193    2.7638   -0.4670 H   0  0  0  0  0  0
   -4.6821    3.9945    0.7565 H   0  0  0  0  0  0
   -2.2957    3.5811    0.5212 H   0  0  0  0  0  0
   -2.8062    3.0826    2.1246 H   0  0  0  0  0  0
   -2.7415    0.7043    1.4768 H   0  0  0  0  0  0
   -2.4902    1.1216   -0.2096 H   0  0  0  0  0  0
   -0.2789    2.1182    0.3282 H   0  0  0  0  0  0
   -0.5182    1.8064    2.0385 H   0  0  0  0  0  0
   -0.5240   -0.6400    1.6469 H   0  0  0  0  0  0
   -0.4508   -0.4004   -0.0905 H   0  0  0  0  0  0
    1.7853    0.6612    0.1024 H   0  0  0  0  0  0
    1.7239    0.5370    1.8518 H   0  0  0  0  0  0
    1.7760   -1.9229    1.7494 H   0  0  0  0  0  0
    1.5568   -1.9041    0.0080 H   0  0  0  0  0  0
    3.8902   -2.3972    0.5111 H   0  0  0  0  0  0
    3.7760   -0.8547   -0.3187 H   0  0  0  0  0  0
    4.0451    0.3517    1.8636 H   0  0  0  0  0  0
    4.1185   -1.1843    2.7115 H   0  0  0  0  0  0
    6.1896   -1.7937    1.4311 H   0  0  0  0  0  0
    6.0828   -0.2921    0.5290 H   0  0  0  0  0  0
    6.3523    1.0091    2.6697 H   0  0  0  0  0  0
    6.5012   -0.4964    3.5613 H   0  0  0  0  0  0
    8.5443   -1.0918    2.2263 H   0  0  0  0  0  0
    8.3769    0.3901    1.3006 H   0  0  0  0  0  0
    8.6867    1.7383    3.4094 H   0  0  0  0  0  0
    8.8793    0.2515    4.3242 H   0  0  0  0  0  0
   10.8798   -0.3441    2.9238 H   0  0  0  0  0  0
   10.6962    1.1517    2.0125 H   0  0  0  0  0  0
   11.3225    1.0138    5.0392 H   0  0  0  0  0  0
   12.1751    2.9492    2.8076 H   0  0  0  0  0  0
   12.6733    2.9903    4.5886 H   0  0  0  0  0  0
  1  2  1  0  0  0
  1 22  1  0  0  0
  1 23  1  0  0  0
  1 24  1  0  0  0
  2  3  1  0  0  0
  2 25  1  0  0  0
  2 26  1  0  0  0
  3  4  1  0  0  0
  3 27  1  0  0  0
  3 28  1  0  0  0
  4  5  1  0  0  0
  4 29  1  0  0  0
  4 30  1  0  0  0
  5  6  1  0  0  0
  5 31  1  0  0  0
  5 32  1  0  0  0
  6  7  1  0  0  0
  6 33  1  0  0  0
  6 34  1  0  0  0
  7  8  1  0  0  0
  7 35  1  0  0  0
  7 36  1  0  0  0
  8  9  1  0  0  0
  8 37  1  0  0  0
  8 38  1  0  0  0
  9 10  1  0  0  0
  9 39  1  0  0  0
  9 40  1  0  0  0
 10 11  1  0  0  0
 10 41  1  0  0  0
 10 42  1  0  0  0
 11 12  1  0  0  0
 11 43  1  0  0  0
 11 44  1  0  0  0
 12 13  1  0  0  0
 12 45  1  0  0  0
 12 46  1  0  0  0
 13 14  1  0  0  0
 13 47  1  0  0  0
 13 48  1  0  0  0
 14 15  1  0  0  0
 14 49  1  0  0  0
 14 50  1  0  0  0
 15 16  1  0  0  0
 15 51  1  0  0  0
 15 52  1  0  0  0
 16 17  1  0  0  0
 16 53  1  0  0  0
 16 54  1  0  0  0
 17 18  1  0  0  0
 17 55  1  0  0  0
 17 56  1  0  0  0
 18 19  1  0  0  0
 18 57  1  0  0  0
 18 58  1  0  0  0
 19 20  1  0  0  0
 19 59  1  0  0  0
 19 60  1  0  0  0
 20 21  2  0  0  0
 20 61  1  0  0  0
 21 62  1  0  0  0
 21 63  1  0  0  0
M  END
>  <i_m_Spin_multiplicity> (1)
1

>  <s_j_Task> (1)
Single Point

>  <s_j_QM_Method> (1)
DFT(b3lyp-d3)

>  <s_j_QM_Basis> (1)
cc-pvtz(-f)

>  <i_j_Number_of_canonical_orbitals> (1)
853

>  <i_j_Geometry_convergence_category> (1)
4

>  <r_j_Gas_Phase_Energy> (1)
-825.883549910016

>  <r_j_Final_Energy> (1)
-825.883549910016

>  <r_j_HOMO> (1)
-0.269784159407569

>  <r_j_LUMO> (1)
-0.00243638317070305

>  <r_j_Polarizability> (1)
261.860266002904

>  <r_j_QM_Dipole_(debye)> (1)
0.462173375584015

>  <r_j_QM_Dipole_X_(debye)> (1)
-0.366082576041149

>  <r_j_QM_Dipole_Y_(debye)> (1)
-0.257315673697966

>  <r_j_QM_Dipole_Z_(debye)> (1)
-0.11565647706532

>  <r_j_Lowest_Frequency_(cm-1)> (1)
22.6257032461252

>  <r_j_Highest_Frequency_(cm-1)> (1)
3166.96543449588

>  <r_j_2nd_Lowest_Frequency_(cm-1)> (1)
30.475451115918

>  <i_j_Num_Negative_Frequencies> (1)
0

>  <r_j_Zero_Point_Energy_(kcal/mol)> (1)
371.77081556914

>  <r_j_Entropy_(cal/mol/K)_298.15K_1.00E+00atm> (1)
168.460212124057

>  <r_j_Enthalpy_(kcal/mol)_298.15K_1.00E+00atm> (1)
16.6455031681561

>  <r_j_Free_Energy_(kcal/mol)_298.15K_1.00E+00atm> (1)
-33.5809090766314

>  <r_j_Internal_Energy_(kcal/mol)_298.15K_1.00E+00atm> (1)
16.0530175793288

>  <r_j_Heat_Capacity_(cal/mol/K)_298.15K_1.00E+00atm> (1)
97.9261889903677

>  <r_j_ln(Q)_298.15K_1.00E+00atm> (1)
56.6780183516348

>  <r_j_Total_Internal_Energy_(au)_298.15K_1.00E+00atm> (1)
-825.265513287958

>  <r_j_Total_Enthalpy_(au)_298.15K_1.00E+00atm> (1)
-825.264569102065

>  <r_j_Total_Free_Energy_(au)_298.15K_1.00E+00atm> (1)
-825.344609985345

>  <r_lp_tautomer_probability> (1)
1

>  <r_epik_Ionization_Penalty> (1)
  0.0000

>  <r_epik_Ionization_Penalty_Charging> (1)
  0.0000

>  <r_epik_Ionization_Penalty_Neutral> (1)
  0.0000

>  <r_epik_State_Penalty> (1)
  0.0000

>  <r_epik_Charging_Adjusted_Penalty> (1)
0

>  <i_epik_Tot_Q> (1)
0

>  <i_epik_Tot_abs_Q> (1)
0

>  <s_lp_Force_Field> (1)
S-OPLS

>  <r_lp_Energy> (1)
7.953413

>  <b_lp_Chiralities_Consistent> (1)
1

$$$$
