3017_Diazinon
                    3D
 Schrodinger Suite 2021-3.
 40 40  0  0  1  0            999 V2000
    0.8683   -0.1244   -3.1799 C   0  0  0  0  0  0
   -0.2322    0.3423   -2.2482 C   0  0  0  0  0  0
   -0.0123   -0.3070   -0.9656 O   0  0  0  0  0  0
   -0.2719    0.3894    0.4458 P   0  0  1  0  0  0
   -1.4981    1.8798    0.5786 S   0  0  0  0  0  0
   -0.5785   -0.9428    1.2835 O   0  0  0  0  0  0
   -0.6603   -0.9176    2.7317 C   0  0  0  0  0  0
   -0.6447   -2.3599    3.2011 C   0  0  0  0  0  0
    1.2515    0.6725    1.0790 O   0  0  0  0  0  0
    2.1331    1.5515    0.5328 C   0  0  0  0  0  0
    1.8898    2.0407   -0.6712 N   0  0  0  0  0  0
    2.8022    2.9026   -1.1680 C   0  0  0  0  0  0
    3.9186    3.2820   -0.5496 N   0  0  0  0  0  0
    4.1576    2.7638    0.6752 C   0  0  0  0  0  0
    3.2723    1.8756    1.2745 C   0  0  0  0  0  0
    5.4246    3.2066    1.3535 C   0  0  0  0  0  0
    2.4738    3.4831   -2.5302 C   0  0  0  0  0  0
    3.6597    4.2010   -3.1783 C   0  0  0  0  0  0
    1.2458    4.4091   -2.4052 C   0  0  0  0  0  0
    0.7254    0.3129   -4.1736 H   0  0  0  0  0  0
    0.8644   -1.2139   -3.2759 H   0  0  0  0  0  0
    1.8403    0.1902   -2.7917 H   0  0  0  0  0  0
   -0.2129    1.4252   -2.1187 H   0  0  0  0  0  0
   -1.2240    0.0385   -2.5965 H   0  0  0  0  0  0
    0.1942   -0.3619    3.1315 H   0  0  0  0  0  0
   -1.5822   -0.4017    3.0200 H   0  0  0  0  0  0
   -0.7228   -2.3992    4.2922 H   0  0  0  0  0  0
    0.2855   -2.8497    2.8997 H   0  0  0  0  0  0
   -1.4827   -2.9148    2.7709 H   0  0  0  0  0  0
    3.4397    1.4503    2.2560 H   0  0  0  0  0  0
    5.5679    2.7108    2.3167 H   0  0  0  0  0  0
    5.4021    4.2897    1.5124 H   0  0  0  0  0  0
    6.2849    2.9958    0.7106 H   0  0  0  0  0  0
    2.1816    2.6317   -3.1599 H   0  0  0  0  0  0
    4.5265    3.5406   -3.2689 H   0  0  0  0  0  0
    3.9671    5.0619   -2.5785 H   0  0  0  0  0  0
    3.3829    4.5528   -4.1773 H   0  0  0  0  0  0
    0.4032    3.8889   -1.9423 H   0  0  0  0  0  0
    0.9385    4.7672   -3.3929 H   0  0  0  0  0  0
    1.4873    5.2815   -1.7879 H   0  0  0  0  0  0
  1  2  1  0  0  0
  1 20  1  0  0  0
  1 21  1  0  0  0
  1 22  1  0  0  0
  2  3  1  0  0  0
  2 23  1  0  0  0
  2 24  1  0  0  0
  3  4  1  0  0  0
  4  5  2  0  0  0
  4  6  1  0  0  0
  4  9  1  0  0  0
  6  7  1  0  0  0
  7  8  1  0  0  0
  7 25  1  0  0  0
  7 26  1  0  0  0
  8 27  1  0  0  0
  8 28  1  0  0  0
  8 29  1  0  0  0
  9 10  1  0  0  0
 10 15  1  0  0  0
 10 11  2  0  0  0
 11 12  1  0  0  0
 12 13  2  0  0  0
 12 17  1  0  0  0
 13 14  1  0  0  0
 14 15  2  0  0  0
 14 16  1  0  0  0
 15 30  1  0  0  0
 16 31  1  0  0  0
 16 32  1  0  0  0
 16 33  1  0  0  0
 17 18  1  0  0  0
 17 19  1  0  0  0
 17 34  1  0  0  0
 18 35  1  0  0  0
 18 36  1  0  0  0
 18 37  1  0  0  0
 19 38  1  0  0  0
 19 39  1  0  0  0
 19 40  1  0  0  0
M  END
>  <i_m_Spin_multiplicity> (1)
1

>  <s_j_Task> (1)
Single Point

>  <s_j_QM_Method> (1)
DFT(b3lyp-d3)

>  <s_j_QM_Basis> (1)
cc-pvtz(-f)

>  <i_j_Number_of_canonical_orbitals> (1)
630

>  <i_j_Geometry_convergence_category> (1)
1

>  <r_j_Gas_Phase_Energy> (1)
-1545.12634921993

>  <r_j_Final_Energy> (1)
-1545.12634921993

>  <r_j_HOMO> (1)
-0.235551404866322

>  <r_j_LUMO> (1)
-0.0295508451183577

>  <r_j_Polarizability> (1)
208.967113106779

>  <r_j_QM_Dipole_(debye)> (1)
2.63510552145252

>  <r_j_QM_Dipole_X_(debye)> (1)
2.22026203979352

>  <r_j_QM_Dipole_Y_(debye)> (1)
-1.16949645284547

>  <r_j_QM_Dipole_Z_(debye)> (1)
0.804049520006905

>  <r_j_Lowest_Frequency_(cm-1)> (1)
40.9057068958154

>  <r_j_Highest_Frequency_(cm-1)> (1)
3174.01923073209

>  <r_j_2nd_Lowest_Frequency_(cm-1)> (1)
52.8950818112606

>  <i_j_Num_Negative_Frequencies> (1)
0

>  <r_j_Zero_Point_Energy_(kcal/mol)> (1)
206.578540113018

>  <r_j_Entropy_(cal/mol/K)_298.15K_1.00E+00atm> (1)
145.567465668387

>  <r_j_Enthalpy_(kcal/mol)_298.15K_1.00E+00atm> (1)
13.6459353087256

>  <r_j_Free_Energy_(kcal/mol)_298.15K_1.00E+00atm> (1)
-29.7550045803038

>  <r_j_Internal_Energy_(kcal/mol)_298.15K_1.00E+00atm> (1)
13.0534497198984

>  <r_j_Heat_Capacity_(cal/mol/K)_298.15K_1.00E+00atm> (1)
78.9113963688152

>  <r_j_ln(Q)_298.15K_1.00E+00atm> (1)
50.2206385124047

>  <r_j_Total_Internal_Energy_(au)_298.15K_1.00E+00atm> (1)
-1544.77634336292

>  <r_j_Total_Enthalpy_(au)_298.15K_1.00E+00atm> (1)
-1544.77539917702

>  <r_j_Total_Free_Energy_(au)_298.15K_1.00E+00atm> (1)
-1544.84456297767

>  <r_lp_tautomer_probability> (1)
1

>  <r_epik_Ionization_Penalty> (1)
  0.0000

>  <r_epik_Ionization_Penalty_Charging> (1)
  0.0000

>  <r_epik_Ionization_Penalty_Neutral> (1)
  0.0000

>  <r_epik_State_Penalty> (1)
  0.0000

>  <r_epik_Charging_Adjusted_Penalty> (1)
0

>  <i_epik_Tot_Q> (1)
0

>  <i_epik_Tot_abs_Q> (1)
0

>  <s_lp_Force_Field> (1)
S-OPLS

>  <r_lp_Energy> (1)
10.467288

>  <b_lp_Chiralities_Consistent> (1)
1

$$$$
