3017068_Docosanal
                    3D
 Schrodinger Suite 2021-3.
 67 66  0  0  1  0            999 V2000
  -10.7324    7.0578   -0.4669 C   0  0  0  0  0  0
   -9.2019    7.0101   -0.4982 C   0  0  0  0  0  0
   -8.6401    5.5888   -0.3714 C   0  0  0  0  0  0
   -7.1085    5.5396   -0.3967 C   0  0  0  0  0  0
   -6.5324    4.1242   -0.2711 C   0  0  0  0  0  0
   -4.9999    4.0984   -0.2884 C   0  0  0  0  0  0
   -4.3985    2.6937   -0.1627 C   0  0  0  0  0  0
   -2.8657    2.7011   -0.1665 C   0  0  0  0  0  0
   -2.2318    1.3114   -0.0348 C   0  0  0  0  0  0
   -0.6995    1.3599   -0.0168 C   0  0  0  0  0  0
   -0.0377   -0.0163    0.1366 C   0  0  0  0  0  0
    1.4996    0.0174    0.0966 C   0  0  0  0  0  0
    2.1414    0.7677    1.2714 C   0  0  0  0  0  0
    3.6746    0.7935    1.2141 C   0  0  0  0  0  0
    4.3359    1.4716    2.4253 C   0  0  0  0  0  0
    3.9839    2.9564    2.5875 C   0  0  0  0  0  0
    4.6839    3.6217    3.7779 C   0  0  0  0  0  0
    4.2704    5.0849    3.9746 C   0  0  0  0  0  0
    4.9264    5.7460    5.1915 C   0  0  0  0  0  0
    4.4654    7.1918    5.4085 C   0  0  0  0  0  0
    5.1148    7.8460    6.6429 C   0  0  0  0  0  0
    4.5556    9.2260    6.8956 C   0  0  0  0  0  0
    5.2064   10.2475    6.9011 O   0  0  0  0  0  0
  -11.1056    8.0831   -0.5596 H   0  0  0  0  0  0
  -11.1206    6.6449    0.4714 H   0  0  0  0  0  0
  -11.1618    6.4710   -1.2872 H   0  0  0  0  0  0
   -8.8386    7.4594   -1.4326 H   0  0  0  0  0  0
   -8.7982    7.6311    0.3132 H   0  0  0  0  0  0
   -9.0046    5.1361    0.5620 H   0  0  0  0  0  0
   -9.0393    4.9662   -1.1851 H   0  0  0  0  0  0
   -6.7465    5.9960   -1.3292 H   0  0  0  0  0  0
   -6.7132    6.1642    0.4173 H   0  0  0  0  0  0
   -6.8946    3.6640    0.6593 H   0  0  0  0  0  0
   -6.9182    3.4986   -1.0888 H   0  0  0  0  0  0
   -4.6407    4.5634   -1.2178 H   0  0  0  0  0  0
   -4.6196    4.7279    0.5290 H   0  0  0  0  0  0
   -4.7590    2.2235    0.7634 H   0  0  0  0  0  0
   -4.7647    2.0632   -0.9854 H   0  0  0  0  0  0
   -2.5085    3.1749   -1.0922 H   0  0  0  0  0  0
   -2.5076    3.3389    0.6546 H   0  0  0  0  0  0
   -2.5919    0.8317    0.8866 H   0  0  0  0  0  0
   -2.5712    0.6723   -0.8624 H   0  0  0  0  0  0
   -0.3402    1.8310   -0.9435 H   0  0  0  0  0  0
   -0.3809    2.0200    0.8002 H   0  0  0  0  0  0
   -0.3667   -0.4743    1.0806 H   0  0  0  0  0  0
   -0.4019   -0.6754   -0.6629 H   0  0  0  0  0  0
    1.8819   -1.0121    0.0803 H   0  0  0  0  0  0
    1.8261    0.4770   -0.8476 H   0  0  0  0  0  0
    1.7638    1.7958    1.2945 H   0  0  0  0  0  0
    1.8204    0.3038    2.2159 H   0  0  0  0  0  0
    4.0481   -0.2363    1.1336 H   0  0  0  0  0  0
    3.9922    1.3045    0.2938 H   0  0  0  0  0  0
    4.0507    0.9330    3.3405 H   0  0  0  0  0  0
    5.4265    1.3712    2.3418 H   0  0  0  0  0  0
    4.2405    3.4946    1.6635 H   0  0  0  0  0  0
    2.8994    3.0693    2.7125 H   0  0  0  0  0  0
    4.4564    3.0562    4.6929 H   0  0  0  0  0  0
    5.7736    3.5613    3.6473 H   0  0  0  0  0  0
    4.5148    5.6594    3.0700 H   0  0  0  0  0  0
    3.1774    5.1387    4.0811 H   0  0  0  0  0  0
    4.7009    5.1569    6.0918 H   0  0  0  0  0  0
    6.0190    5.7240    5.0789 H   0  0  0  0  0  0
    4.6968    7.7912    4.5185 H   0  0  0  0  0  0
    3.3719    7.2115    5.5172 H   0  0  0  0  0  0
    4.9031    7.2274    7.5278 H   0  0  0  0  0  0
    6.2005    7.9243    6.5304 H   0  0  0  0  0  0
    3.4528    9.2526    7.0674 H   0  0  0  0  0  0
  1  2  1  0  0  0
  1 24  1  0  0  0
  1 25  1  0  0  0
  1 26  1  0  0  0
  2  3  1  0  0  0
  2 27  1  0  0  0
  2 28  1  0  0  0
  3  4  1  0  0  0
  3 29  1  0  0  0
  3 30  1  0  0  0
  4  5  1  0  0  0
  4 31  1  0  0  0
  4 32  1  0  0  0
  5  6  1  0  0  0
  5 33  1  0  0  0
  5 34  1  0  0  0
  6  7  1  0  0  0
  6 35  1  0  0  0
  6 36  1  0  0  0
  7  8  1  0  0  0
  7 37  1  0  0  0
  7 38  1  0  0  0
  8  9  1  0  0  0
  8 39  1  0  0  0
  8 40  1  0  0  0
  9 10  1  0  0  0
  9 41  1  0  0  0
  9 42  1  0  0  0
 10 11  1  0  0  0
 10 43  1  0  0  0
 10 44  1  0  0  0
 11 12  1  0  0  0
 11 45  1  0  0  0
 11 46  1  0  0  0
 12 13  1  0  0  0
 12 47  1  0  0  0
 12 48  1  0  0  0
 13 14  1  0  0  0
 13 49  1  0  0  0
 13 50  1  0  0  0
 14 15  1  0  0  0
 14 51  1  0  0  0
 14 52  1  0  0  0
 15 16  1  0  0  0
 15 53  1  0  0  0
 15 54  1  0  0  0
 16 17  1  0  0  0
 16 55  1  0  0  0
 16 56  1  0  0  0
 17 18  1  0  0  0
 17 57  1  0  0  0
 17 58  1  0  0  0
 18 19  1  0  0  0
 18 59  1  0  0  0
 18 60  1  0  0  0
 19 20  1  0  0  0
 19 61  1  0  0  0
 19 62  1  0  0  0
 20 21  1  0  0  0
 20 63  1  0  0  0
 20 64  1  0  0  0
 21 22  1  0  0  0
 21 65  1  0  0  0
 21 66  1  0  0  0
 22 23  2  0  0  0
 22 67  1  0  0  0
M  END
>  <i_m_Spin_multiplicity> (1)
1

>  <s_j_Task> (1)
Single Point

>  <s_j_QM_Method> (1)
DFT(b3lyp-d3)

>  <s_j_QM_Basis> (1)
cc-pvtz(-f)

>  <i_j_Number_of_canonical_orbitals> (1)
918

>  <i_j_Geometry_convergence_category> (1)
1

>  <r_j_Gas_Phase_Energy> (1)
-940.477808179447

>  <r_j_Final_Energy> (1)
-940.477808179447

>  <r_j_HOMO> (1)
-0.246010184672259

>  <r_j_LUMO> (1)
-0.0218380454446813

>  <r_j_Polarizability> (1)
275.428042065364

>  <r_j_QM_Dipole_(debye)> (1)
3.13923802715526

>  <r_j_QM_Dipole_X_(debye)> (1)
-1.04273677542747

>  <r_j_QM_Dipole_Y_(debye)> (1)
-2.91412436416631

>  <r_j_QM_Dipole_Z_(debye)> (1)
-0.52478052410614

>  <r_j_Lowest_Frequency_(cm-1)> (1)
11.9394308607723

>  <r_j_Highest_Frequency_(cm-1)> (1)
3050.4409655475

>  <r_j_2nd_Lowest_Frequency_(cm-1)> (1)
31.3315973806378

>  <i_j_Num_Negative_Frequencies> (1)
0

>  <r_j_Zero_Point_Energy_(kcal/mol)> (1)
392.540446620526

>  <r_j_Entropy_(cal/mol/K)_298.15K_1.00E+00atm> (1)
179.276071314695

>  <r_j_Enthalpy_(kcal/mol)_298.15K_1.00E+00atm> (1)
18.0440332897432

>  <r_j_Free_Energy_(kcal/mol)_298.15K_1.00E+00atm> (1)
-35.4071273727331

>  <r_j_Internal_Energy_(kcal/mol)_298.15K_1.00E+00atm> (1)
17.4515477009159

>  <r_j_Heat_Capacity_(cal/mol/K)_298.15K_1.00E+00atm> (1)
105.684081626132

>  <r_j_ln(Q)_298.15K_1.00E+00atm> (1)
59.7603182936745

>  <r_j_Total_Internal_Energy_(au)_298.15K_1.00E+00atm> (1)
-939.824444343645

>  <r_j_Total_Enthalpy_(au)_298.15K_1.00E+00atm> (1)
-939.823500157753

>  <r_j_Total_Free_Energy_(au)_298.15K_1.00E+00atm> (1)
-939.908680004779

>  <r_lp_tautomer_probability> (1)
1

>  <r_epik_Ionization_Penalty> (1)
  0.0000

>  <r_epik_Ionization_Penalty_Charging> (1)
  0.0000

>  <r_epik_Ionization_Penalty_Neutral> (1)
  0.0000

>  <r_epik_State_Penalty> (1)
  0.0000

>  <r_epik_Charging_Adjusted_Penalty> (1)
0

>  <i_epik_Tot_Q> (1)
0

>  <i_epik_Tot_abs_Q> (1)
0

>  <s_lp_Force_Field> (1)
S-OPLS

>  <r_lp_Energy> (1)
11.368205

>  <b_lp_Chiralities_Consistent> (1)
1

$$$$
