3032412_Methyl iso-pimarate
                    3D
 Schrodinger Suite 2021-3.
 55 57  0  0  1  0            999 V2000
    5.1884    4.7798   -1.4440 C   0  0  0  0  0  0
    3.6712    4.5660   -1.2518 C   0  0  0  0  0  0
    3.0180    4.1811   -2.5965 C   0  0  0  0  0  0
    1.5331    3.8214   -2.4527 C   0  0  0  0  0  0
    1.2998    2.6598   -1.4531 C   0  0  0  0  0  0
    2.0091    2.9488   -0.1430 C   0  0  0  0  0  0
    1.4440    2.7481    1.0525 C   0  0  0  0  0  0
    0.0717    2.1703    1.2609 C   0  0  0  0  0  0
   -0.4514    1.4272    0.0141 C   0  0  0  0  0  0
   -0.2093    2.2889   -1.2720 C   0  0  0  0  0  0
   -0.7284    1.5134   -2.5049 C   0  0  0  0  0  0
   -0.1289    0.1113   -2.6441 C   0  0  0  0  0  0
   -0.4127   -0.7263   -1.3948 C   0  0  0  0  0  0
   -0.0092   -0.0882   -0.0378 C   0  0  0  0  0  0
   -0.7594   -0.8625    1.0745 C   0  0  0  0  0  0
    1.4819   -0.2545    0.2815 C   0  0  0  0  0  0
    1.9330   -0.3570    1.4039 O   0  0  0  0  0  0
    2.2736   -0.3026   -0.8163 O   0  0  0  0  0  0
    3.6794   -0.4326   -0.5430 C   0  0  0  0  0  0
   -1.0607    3.5727   -1.1216 C   0  0  0  0  0  0
    3.4504    3.3837   -0.2733 C   0  0  0  0  0  0
    3.1083    5.8401   -0.6422 C   0  0  0  0  0  0
    2.4719    6.8342   -1.2619 C   0  0  0  0  0  0
    5.6644    3.8682   -1.8245 H   0  0  0  0  0  0
    5.6739    5.0420   -0.4972 H   0  0  0  0  0  0
    5.3774    5.5908   -2.1539 H   0  0  0  0  0  0
    3.1422    4.9925   -3.3238 H   0  0  0  0  0  0
    3.5677    3.3211   -3.0042 H   0  0  0  0  0  0
    0.9949    4.7099   -2.1180 H   0  0  0  0  0  0
    1.1271    3.5523   -3.4342 H   0  0  0  0  0  0
    1.8132    1.7894   -1.8789 H   0  0  0  0  0  0
    2.0204    2.9665    1.9503 H   0  0  0  0  0  0
    0.1054    1.4971    2.1224 H   0  0  0  0  0  0
   -0.6352    2.9647    1.5372 H   0  0  0  0  0  0
   -1.5441    1.3558    0.1028 H   0  0  0  0  0  0
   -1.8212    1.4246   -2.4168 H   0  0  0  0  0  0
   -0.5447    2.0983   -3.4137 H   0  0  0  0  0  0
   -0.5626   -0.3905   -3.5176 H   0  0  0  0  0  0
    0.9482    0.1670   -2.8213 H   0  0  0  0  0  0
   -1.4960   -0.9008   -1.3473 H   0  0  0  0  0  0
    0.0544   -1.7142   -1.4782 H   0  0  0  0  0  0
   -1.8394   -0.7287    0.9607 H   0  0  0  0  0  0
   -0.4634   -0.5369    2.0716 H   0  0  0  0  0  0
   -0.5407   -1.9333    1.0047 H   0  0  0  0  0  0
    4.1760   -0.3554   -1.5105 H   0  0  0  0  0  0
    3.8915   -1.3984   -0.0770 H   0  0  0  0  0  0
    4.0109    0.3610    0.1300 H   0  0  0  0  0  0
   -2.0741    3.3250   -0.7869 H   0  0  0  0  0  0
   -1.1546    4.0979   -2.0760 H   0  0  0  0  0  0
   -0.6244    4.2699   -0.4008 H   0  0  0  0  0  0
    4.0340    2.5344   -0.6604 H   0  0  0  0  0  0
    3.8687    3.6233    0.7122 H   0  0  0  0  0  0
    3.3108    5.9458    0.4251 H   0  0  0  0  0  0
    2.2348    6.8072   -2.3214 H   0  0  0  0  0  0
    2.1611    7.7241   -0.7227 H   0  0  0  0  0  0
  1  2  1  0  0  0
  1 24  1  0  0  0
  1 25  1  0  0  0
  1 26  1  0  0  0
  2 21  1  0  0  0
  2  3  1  0  0  0
  2 22  1  0  0  0
  3  4  1  0  0  0
  3 27  1  0  0  0
  3 28  1  0  0  0
  4  5  1  0  0  0
  4 29  1  0  0  0
  4 30  1  0  0  0
  5 10  1  0  0  0
  5  6  1  0  0  0
  5 31  1  0  0  0
  6  7  2  0  0  0
  6 21  1  0  0  0
  7  8  1  0  0  0
  7 32  1  0  0  0
  8  9  1  0  0  0
  8 33  1  0  0  0
  8 34  1  0  0  0
  9 14  1  0  0  0
  9 10  1  0  0  0
  9 35  1  0  0  0
 10 11  1  0  0  0
 10 20  1  0  0  0
 11 12  1  0  0  0
 11 36  1  0  0  0
 11 37  1  0  0  0
 12 13  1  0  0  0
 12 38  1  0  0  0
 12 39  1  0  0  0
 13 14  1  0  0  0
 13 40  1  0  0  0
 13 41  1  0  0  0
 14 15  1  0  0  0
 14 16  1  0  0  0
 15 42  1  0  0  0
 15 43  1  0  0  0
 15 44  1  0  0  0
 16 17  2  0  0  0
 16 18  1  0  0  0
 18 19  1  0  0  0
 19 45  1  0  0  0
 19 46  1  0  0  0
 19 47  1  0  0  0
 20 48  1  0  0  0
 20 49  1  0  0  0
 20 50  1  0  0  0
 21 51  1  0  0  0
 21 52  1  0  0  0
 22 23  2  0  0  0
 22 53  1  0  0  0
 23 54  1  0  0  0
 23 55  1  0  0  0
M  END
>  <i_m_Spin_multiplicity> (1)
1

>  <s_j_Task> (1)
Single Point

>  <s_j_QM_Method> (1)
DFT(b3lyp-d3)

>  <s_j_QM_Basis> (1)
cc-pvtz(-f)

>  <i_j_Number_of_canonical_orbitals> (1)
802

>  <i_j_Geometry_convergence_category> (1)
3

>  <r_j_Gas_Phase_Energy> (1)
-970.326047753035

>  <r_j_Final_Energy> (1)
-970.326047753035

>  <r_j_HOMO> (1)
-0.213942551707766

>  <r_j_LUMO> (1)
0.00805971952306621

>  <r_j_Polarizability> (1)
235.353154356675

>  <r_j_QM_Dipole_(debye)> (1)
1.67572546995662

>  <r_j_QM_Dipole_X_(debye)> (1)
0.087741923017676

>  <r_j_QM_Dipole_Y_(debye)> (1)
-0.072076517686357

>  <r_j_QM_Dipole_Z_(debye)> (1)
-1.67187385325708

>  <r_j_Lowest_Frequency_(cm-1)> (1)
66.019425112165

>  <r_j_Highest_Frequency_(cm-1)> (1)
3172.7381138772

>  <r_j_2nd_Lowest_Frequency_(cm-1)> (1)
69.1735018522233

>  <i_j_Num_Negative_Frequencies> (1)
0

>  <r_j_Zero_Point_Energy_(kcal/mol)> (1)
309.207646365672

>  <r_j_Entropy_(cal/mol/K)_298.15K_1.00E+00atm> (1)
142.725694628674

>  <r_j_Enthalpy_(kcal/mol)_298.15K_1.00E+00atm> (1)
13.9306129480221

>  <r_j_Free_Energy_(kcal/mol)_298.15K_1.00E+00atm> (1)
-28.6230529055171

>  <r_j_Internal_Energy_(kcal/mol)_298.15K_1.00E+00atm> (1)
13.3381273591948

>  <r_j_Heat_Capacity_(cal/mol/K)_298.15K_1.00E+00atm> (1)
90.7528016758367

>  <r_j_ln(Q)_298.15K_1.00E+00atm> (1)
48.3101250819815

>  <r_j_Total_Internal_Energy_(au)_298.15K_1.00E+00atm> (1)
-969.812038340994

>  <r_j_Total_Enthalpy_(au)_298.15K_1.00E+00atm> (1)
-969.811094155102

>  <r_j_Total_Free_Energy_(au)_298.15K_1.00E+00atm> (1)
-969.878907738622

>  <r_lp_tautomer_probability> (1)
1

>  <r_epik_Ionization_Penalty> (1)
  0.0000

>  <r_epik_Ionization_Penalty_Charging> (1)
  0.0000

>  <r_epik_Ionization_Penalty_Neutral> (1)
  0.0000

>  <r_epik_State_Penalty> (1)
  0.0000

>  <r_epik_Charging_Adjusted_Penalty> (1)
0

>  <i_epik_Tot_Q> (1)
0

>  <i_epik_Tot_abs_Q> (1)
0

>  <s_lp_Force_Field> (1)
S-OPLS

>  <r_lp_Energy> (1)
31.499107

>  <b_lp_Chiralities_Consistent> (1)
1

>  <s_epik_Chemistry_Notes> (1)
This compound has an ester and may undergo hydrolysis at high or low pH.

$$$$
