30692_Thiocyanic acid (2-benzoathiazolythio)methyl ester
                    3D
 Schrodinger Suite 2021-3.
 20 21  0  0  1  0            999 V2000
    0.1370    5.5054    1.6838 C   0  0  0  0  0  0
   -0.9313    5.8438    0.8374 C   0  0  0  0  0  0
   -1.2470    5.0620   -0.2715 C   0  0  0  0  0  0
   -0.4690    3.9301   -0.5149 C   0  0  0  0  0  0
    0.6108    3.5803    0.3299 C   0  0  0  0  0  0
    0.9121    4.3781    1.4402 C   0  0  0  0  0  0
    1.3063    2.4368   -0.0390 N   0  0  0  0  0  0
    0.7987    1.9130   -1.1033 C   0  0  0  0  0  0
   -0.6090    2.7406   -1.8066 S   0  0  0  0  0  0
    1.4218    0.4492   -1.8897 S   0  0  0  0  0  0
    2.5132   -0.1331   -0.5614 C   0  0  0  0  0  0
    1.5174   -1.0177    0.7416 S   0  0  0  0  0  0
    2.6824   -1.0535    1.9812 C   0  0  0  0  0  0
    3.4694   -1.0879    2.8419 N   0  0  0  0  0  0
    0.3594    6.1343    2.5402 H   0  0  0  0  0  0
   -1.5234    6.7289    1.0489 H   0  0  0  0  0  0
   -2.0740    5.3261   -0.9220 H   0  0  0  0  0  0
    1.7404    4.1022    2.0838 H   0  0  0  0  0  0
    3.2284   -0.8229   -1.0098 H   0  0  0  0  0  0
    3.0133    0.7184   -0.0997 H   0  0  0  0  0  0
  1  6  1  0  0  0
  1  2  2  0  0  0
  1 15  1  0  0  0
  2  3  1  0  0  0
  2 16  1  0  0  0
  3  4  2  0  0  0
  3 17  1  0  0  0
  4  9  1  0  0  0
  4  5  1  0  0  0
  5  6  2  0  0  0
  5  7  1  0  0  0
  6 18  1  0  0  0
  7  8  2  0  0  0
  8  9  1  0  0  0
  8 10  1  0  0  0
 10 11  1  0  0  0
 11 12  1  0  0  0
 11 19  1  0  0  0
 11 20  1  0  0  0
 12 13  1  0  0  0
 13 14  3  0  0  0
M  END
>  <i_m_Spin_multiplicity> (1)
1

>  <s_j_Task> (1)
Single Point

>  <s_j_QM_Method> (1)
DFT(b3lyp-d3)

>  <s_j_QM_Basis> (1)
cc-pvtz(-f)

>  <i_j_Number_of_canonical_orbitals> (1)
384

>  <i_j_Geometry_convergence_category> (1)
3

>  <r_j_Gas_Phase_Energy> (1)
-1650.87229559284

>  <r_j_Final_Energy> (1)
-1650.87229559284

>  <r_j_HOMO> (1)
-0.228667455068106

>  <r_j_LUMO> (1)
-0.0583902511127536

>  <r_j_Polarizability> (1)
172.727819246232

>  <r_j_QM_Dipole_(debye)> (1)
4.34731968588265

>  <r_j_QM_Dipole_X_(debye)> (1)
-2.08176157245386

>  <r_j_QM_Dipole_Y_(debye)> (1)
2.34196607271259

>  <r_j_QM_Dipole_Z_(debye)> (1)
-3.01341203969528

>  <r_j_Lowest_Frequency_(cm-1)> (1)
39.1890971969428

>  <r_j_Highest_Frequency_(cm-1)> (1)
3161.37665025942

>  <r_j_2nd_Lowest_Frequency_(cm-1)> (1)
59.3262680171911

>  <i_j_Num_Negative_Frequencies> (1)
0

>  <r_j_Zero_Point_Energy_(kcal/mol)> (1)
82.1755702009365

>  <r_j_Entropy_(cal/mol/K)_298.15K_1.00E+00atm> (1)
110.655979187819

>  <r_j_Enthalpy_(kcal/mol)_298.15K_1.00E+00atm> (1)
8.33418717027758

>  <r_j_Free_Energy_(kcal/mol)_298.15K_1.00E+00atm> (1)
-24.6578930245708

>  <r_j_Internal_Energy_(kcal/mol)_298.15K_1.00E+00atm> (1)
7.7417015814503

>  <r_j_Heat_Capacity_(cal/mol/K)_298.15K_1.00E+00atm> (1)
46.8608780126871

>  <r_j_ln(Q)_298.15K_1.00E+00atm> (1)
41.617709341044

>  <r_j_Total_Internal_Energy_(au)_298.15K_1.00E+00atm> (1)
-1650.72900329833

>  <r_j_Total_Enthalpy_(au)_298.15K_1.00E+00atm> (1)
-1650.72805911244

>  <r_j_Total_Free_Energy_(au)_298.15K_1.00E+00atm> (1)
-1650.78063533921

>  <r_lp_tautomer_probability> (1)
1

>  <r_epik_Ionization_Penalty> (1)
  0.0000

>  <r_epik_Ionization_Penalty_Charging> (1)
  0.0000

>  <r_epik_Ionization_Penalty_Neutral> (1)
  0.0000

>  <r_epik_State_Penalty> (1)
  0.0000

>  <r_epik_Charging_Adjusted_Penalty> (1)
0

>  <i_epik_Tot_Q> (1)
0

>  <i_epik_Tot_abs_Q> (1)
0

>  <s_lp_Force_Field> (1)
S-OPLS

>  <r_lp_Energy> (1)
14.819291

>  <b_lp_Chiralities_Consistent> (1)
1

>  <s_epik_Chemistry_Notes> (1)
This compound contains an acetal/aminal-like group ( X-CH(R)-Y where X, Y are N, S, or O) that may be acid/base labile, releasing an aldehyde.

$$$$
