3084376_Octacosanal
                    3D
 Schrodinger Suite 2021-3.
 85 84  0  0  1  0            999 V2000
    0.4115   10.5575    2.1869 C   0  0  0  0  0  0
   -0.0853    9.1629    1.7948 C   0  0  0  0  0  0
   -1.4545    9.1809    1.1038 C   0  0  0  0  0  0
   -1.9460    7.7850    0.7053 C   0  0  0  0  0  0
   -3.3087    7.7800    0.0018 C   0  0  0  0  0  0
   -3.7601    6.3719   -0.4016 C   0  0  0  0  0  0
   -5.1007    6.3282   -1.1481 C   0  0  0  0  0  0
   -5.5182    4.8986   -1.5334 C   0  0  0  0  0  0
   -6.0297    4.0461   -0.3489 C   0  0  0  0  0  0
   -5.6017    2.5693   -0.4245 C   0  0  0  0  0  0
   -4.1290    2.3749   -0.0396 C   0  0  0  0  0  0
   -3.5927    0.9524   -0.2350 C   0  0  0  0  0  0
   -2.1368    0.8199    0.2269 C   0  0  0  0  0  0
   -1.4976   -0.5475   -0.0403 C   0  0  0  0  0  0
   -0.0510   -0.6160    0.4630 C   0  0  0  0  0  0
    0.6862   -1.9152    0.1195 C   0  0  0  0  0  0
    2.1258   -1.9230    0.6470 C   0  0  0  0  0  0
    2.9503   -3.1444    0.2256 C   0  0  0  0  0  0
    4.3850   -3.0977    0.7642 C   0  0  0  0  0  0
    5.2806   -4.2369    0.2659 C   0  0  0  0  0  0
    6.7119   -4.1467    0.8077 C   0  0  0  0  0  0
    7.6599   -5.2047    0.2335 C   0  0  0  0  0  0
    9.0899   -5.0867    0.7733 C   0  0  0  0  0  0
   10.0712   -6.0696    0.1261 C   0  0  0  0  0  0
   11.5012   -5.9346    0.6656 C   0  0  0  0  0  0
   12.5139   -6.8986    0.0321 C   0  0  0  0  0  0
   12.7614   -6.6387   -1.4553 C   0  0  0  0  0  0
   13.8322   -7.5145   -2.0614 C   0  0  0  0  0  0
   14.4540   -8.3609   -1.4569 O   0  0  0  0  0  0
    1.3897   10.5135    2.6773 H   0  0  0  0  0  0
   -0.2863   11.0452    2.8775 H   0  0  0  0  0  0
    0.5085   11.2034    1.3065 H   0  0  0  0  0  0
    0.6474    8.6855    1.1296 H   0  0  0  0  0  0
   -0.1410    8.5271    2.6891 H   0  0  0  0  0  0
   -2.1918    9.6536    1.7687 H   0  0  0  0  0  0
   -1.4014    9.8185    0.2095 H   0  0  0  0  0  0
   -1.2003    7.3148    0.0479 H   0  0  0  0  0  0
   -1.9993    7.1499    1.6014 H   0  0  0  0  0  0
   -4.0634    8.2344    0.6595 H   0  0  0  0  0  0
   -3.2604    8.4190   -0.8916 H   0  0  0  0  0  0
   -2.9882    5.9170   -1.0396 H   0  0  0  0  0  0
   -3.8121    5.7417    0.4966 H   0  0  0  0  0  0
   -5.8851    6.7906   -0.5321 H   0  0  0  0  0  0
   -5.0208    6.9449   -2.0533 H   0  0  0  0  0  0
   -6.2926    4.9317   -2.3096 H   0  0  0  0  0  0
   -4.6546    4.4063   -2.0009 H   0  0  0  0  0  0
   -5.6619    4.4612    0.5992 H   0  0  0  0  0  0
   -7.1227    4.1203   -0.2991 H   0  0  0  0  0  0
   -6.2283    1.9615    0.2413 H   0  0  0  0  0  0
   -5.7760    2.1875   -1.4406 H   0  0  0  0  0  0
   -3.5024    3.0680   -0.6177 H   0  0  0  0  0  0
   -4.0006    2.6687    1.0125 H   0  0  0  0  0  0
   -4.2216    0.2368    0.3135 H   0  0  0  0  0  0
   -3.6702    0.6756   -1.2961 H   0  0  0  0  0  0
   -1.5338    1.5943   -0.2694 H   0  0  0  0  0  0
   -2.0803    1.0419    1.3024 H   0  0  0  0  0  0
   -2.0937   -1.3384    0.4365 H   0  0  0  0  0  0
   -1.5216   -0.7563   -1.1195 H   0  0  0  0  0  0
    0.5121    0.2304    0.0434 H   0  0  0  0  0  0
   -0.0414   -0.4698    1.5528 H   0  0  0  0  0  0
    0.1372   -2.7757    0.5276 H   0  0  0  0  0  0
    0.6955   -2.0496   -0.9717 H   0  0  0  0  0  0
    2.6376   -1.0142    0.2982 H   0  0  0  0  0  0
    2.1098   -1.8546    1.7442 H   0  0  0  0  0  0
    2.4561   -4.0645    0.5682 H   0  0  0  0  0  0
    2.9749   -3.2031   -0.8720 H   0  0  0  0  0  0
    4.8416   -2.1382    0.4808 H   0  0  0  0  0  0
    4.3611   -3.1051    1.8634 H   0  0  0  0  0  0
    4.8409   -5.2050    0.5447 H   0  0  0  0  0  0
    5.3066   -4.2208   -0.8333 H   0  0  0  0  0  0
    7.1167   -3.1484    0.5867 H   0  0  0  0  0  0
    6.6927   -4.2274    1.9040 H   0  0  0  0  0  0
    7.2680   -6.2090    0.4484 H   0  0  0  0  0  0
    7.6776   -5.1147   -0.8623 H   0  0  0  0  0  0
    9.4524   -4.0610    0.6126 H   0  0  0  0  0  0
    9.0836   -5.2369    1.8623 H   0  0  0  0  0  0
    9.7205   -7.0998    0.2829 H   0  0  0  0  0  0
   10.0620   -5.9083   -0.9605 H   0  0  0  0  0  0
   11.8455   -4.8998    0.5230 H   0  0  0  0  0  0
   11.4868   -6.1005    1.7508 H   0  0  0  0  0  0
   13.4721   -6.8302    0.5585 H   0  0  0  0  0  0
   12.1787   -7.9349    0.1619 H   0  0  0  0  0  0
   11.8525   -6.7817   -2.0581 H   0  0  0  0  0  0
   13.0538   -5.5918   -1.6357 H   0  0  0  0  0  0
   14.0275   -7.3319   -3.1441 H   0  0  0  0  0  0
  1  2  1  0  0  0
  1 30  1  0  0  0
  1 31  1  0  0  0
  1 32  1  0  0  0
  2  3  1  0  0  0
  2 33  1  0  0  0
  2 34  1  0  0  0
  3  4  1  0  0  0
  3 35  1  0  0  0
  3 36  1  0  0  0
  4  5  1  0  0  0
  4 37  1  0  0  0
  4 38  1  0  0  0
  5  6  1  0  0  0
  5 39  1  0  0  0
  5 40  1  0  0  0
  6  7  1  0  0  0
  6 41  1  0  0  0
  6 42  1  0  0  0
  7  8  1  0  0  0
  7 43  1  0  0  0
  7 44  1  0  0  0
  8  9  1  0  0  0
  8 45  1  0  0  0
  8 46  1  0  0  0
  9 10  1  0  0  0
  9 47  1  0  0  0
  9 48  1  0  0  0
 10 11  1  0  0  0
 10 49  1  0  0  0
 10 50  1  0  0  0
 11 12  1  0  0  0
 11 51  1  0  0  0
 11 52  1  0  0  0
 12 13  1  0  0  0
 12 53  1  0  0  0
 12 54  1  0  0  0
 13 14  1  0  0  0
 13 55  1  0  0  0
 13 56  1  0  0  0
 14 15  1  0  0  0
 14 57  1  0  0  0
 14 58  1  0  0  0
 15 16  1  0  0  0
 15 59  1  0  0  0
 15 60  1  0  0  0
 16 17  1  0  0  0
 16 61  1  0  0  0
 16 62  1  0  0  0
 17 18  1  0  0  0
 17 63  1  0  0  0
 17 64  1  0  0  0
 18 19  1  0  0  0
 18 65  1  0  0  0
 18 66  1  0  0  0
 19 20  1  0  0  0
 19 67  1  0  0  0
 19 68  1  0  0  0
 20 21  1  0  0  0
 20 69  1  0  0  0
 20 70  1  0  0  0
 21 22  1  0  0  0
 21 71  1  0  0  0
 21 72  1  0  0  0
 22 23  1  0  0  0
 22 73  1  0  0  0
 22 74  1  0  0  0
 23 24  1  0  0  0
 23 75  1  0  0  0
 23 76  1  0  0  0
 24 25  1  0  0  0
 24 77  1  0  0  0
 24 78  1  0  0  0
 25 26  1  0  0  0
 25 79  1  0  0  0
 25 80  1  0  0  0
 26 27  1  0  0  0
 26 81  1  0  0  0
 26 82  1  0  0  0
 27 28  1  0  0  0
 27 83  1  0  0  0
 27 84  1  0  0  0
 28 29  2  0  0  0
 28 85  1  0  0  0
M  END
>  <i_m_Spin_multiplicity> (1)
1

>  <s_j_Task> (1)
Single Point

>  <s_j_QM_Method> (1)
DFT(b3lyp-d3)

>  <s_j_QM_Basis> (1)
cc-pvtz(-f)

>  <i_j_Number_of_canonical_orbitals> (1)
1162

>  <i_j_Geometry_convergence_category> (1)
0

>  <r_j_Gas_Phase_Energy> (1)
-1176.4514354148

>  <r_j_Final_Energy> (1)
-1176.4514354148

>  <r_j_HOMO> (1)
-0.261256333866029

>  <r_j_LUMO> (1)
-0.0629121296105237

>  <r_j_Polarizability> (1)
349.522525269232

>  <r_j_QM_Dipole_(debye)> (1)
2.74654257491163

>  <r_j_QM_Dipole_X_(debye)> (1)
-1.85939244457909

>  <r_j_QM_Dipole_Y_(debye)> (1)
1.92330781229344

>  <r_j_QM_Dipole_Z_(debye)> (1)
-0.622127729662823

>  <r_j_Lowest_Frequency_(cm-1)> (1)
16.0034137372331

>  <r_j_Highest_Frequency_(cm-1)> (1)
3044.83285190262

>  <r_j_2nd_Lowest_Frequency_(cm-1)> (1)
19.9313585148706

>  <i_j_Num_Negative_Frequencies> (1)
0

>  <r_j_Zero_Point_Energy_(kcal/mol)> (1)
499.689588711231

>  <r_j_Entropy_(cal/mol/K)_298.15K_1.00E+00atm> (1)
209.699162970417

>  <r_j_Enthalpy_(kcal/mol)_298.15K_1.00E+00atm> (1)
22.5247789721402

>  <r_j_Free_Energy_(kcal/mol)_298.15K_1.00E+00atm> (1)
-39.9970264674897

>  <r_j_Internal_Energy_(kcal/mol)_298.15K_1.00E+00atm> (1)
21.9322933833129

>  <r_j_Heat_Capacity_(cal/mol/K)_298.15K_1.00E+00atm> (1)
134.057113933813

>  <r_j_ln(Q)_298.15K_1.00E+00atm> (1)
67.5071718565461

>  <r_j_Total_Internal_Energy_(au)_298.15K_1.00E+00atm> (1)
-1175.6201780282

>  <r_j_Total_Enthalpy_(au)_298.15K_1.00E+00atm> (1)
-1175.61923384231

>  <r_j_Total_Free_Energy_(au)_298.15K_1.00E+00atm> (1)
-1175.71886868199

>  <r_lp_tautomer_probability> (1)
1

>  <r_epik_Ionization_Penalty> (1)
  0.0000

>  <r_epik_Ionization_Penalty_Charging> (1)
  0.0000

>  <r_epik_Ionization_Penalty_Neutral> (1)
  0.0000

>  <r_epik_State_Penalty> (1)
  0.0000

>  <r_epik_Charging_Adjusted_Penalty> (1)
0

>  <i_epik_Tot_Q> (1)
0

>  <i_epik_Tot_abs_Q> (1)
0

>  <s_lp_Force_Field> (1)
S-OPLS

>  <r_lp_Energy> (1)
13.887309

>  <b_lp_Chiralities_Consistent> (1)
1

$$$$
