31225_Benzylcarbinyl propionate
                    3D
 Schrodinger Suite 2021-3.
 27 27  0  0  1  0            999 V2000
   -2.4238    0.7591    1.2576 C   0  0  0  0  0  0
   -1.9153    1.3083   -0.0823 C   0  0  0  0  0  0
   -0.4050    1.4014   -0.1685 C   0  0  0  0  0  0
    0.2221    2.3778   -0.5169 O   0  0  0  0  0  0
    0.1716    0.2256    0.1758 O   0  0  0  0  0  0
    1.6059    0.1419    0.0384 C   0  0  0  0  0  0
    1.9744   -1.3410    0.0510 C   0  0  0  0  0  0
    1.3958   -2.0867   -1.1323 C   0  0  0  0  0  0
    0.0741   -2.5503   -1.1054 C   0  0  0  0  0  0
   -0.4814   -3.1858   -2.2148 C   0  0  0  0  0  0
    0.2777   -3.3681   -3.3720 C   0  0  0  0  0  0
    1.5952   -2.9121   -3.4100 C   0  0  0  0  0  0
    2.1476   -2.2765   -2.2973 C   0  0  0  0  0  0
   -3.5169    0.7169    1.2631 H   0  0  0  0  0  0
   -2.1069    1.3959    2.0895 H   0  0  0  0  0  0
   -2.0373   -0.2471    1.4356 H   0  0  0  0  0  0
   -2.2440    0.6527   -0.8987 H   0  0  0  0  0  0
   -2.3063    2.3085   -0.2813 H   0  0  0  0  0  0
    1.9069    0.6240   -0.8961 H   0  0  0  0  0  0
    2.0748    0.6831    0.8677 H   0  0  0  0  0  0
    3.0680   -1.4139    0.0508 H   0  0  0  0  0  0
    1.6228   -1.7811    0.9911 H   0  0  0  0  0  0
   -0.5213   -2.4000   -0.2099 H   0  0  0  0  0  0
   -1.5079   -3.5396   -2.1763 H   0  0  0  0  0  0
   -0.1544   -3.8637   -4.2367 H   0  0  0  0  0  0
    2.1946   -3.0521   -4.3052 H   0  0  0  0  0  0
    3.1753   -1.9223   -2.3346 H   0  0  0  0  0  0
  1  2  1  0  0  0
  1 14  1  0  0  0
  1 15  1  0  0  0
  1 16  1  0  0  0
  2  3  1  0  0  0
  2 17  1  0  0  0
  2 18  1  0  0  0
  3  4  2  0  0  0
  3  5  1  0  0  0
  5  6  1  0  0  0
  6  7  1  0  0  0
  6 19  1  0  0  0
  6 20  1  0  0  0
  7  8  1  0  0  0
  7 21  1  0  0  0
  7 22  1  0  0  0
  8 13  1  0  0  0
  8  9  2  0  0  0
  9 10  1  0  0  0
  9 23  1  0  0  0
 10 11  2  0  0  0
 10 24  1  0  0  0
 11 12  1  0  0  0
 11 25  1  0  0  0
 12 13  2  0  0  0
 12 26  1  0  0  0
 13 27  1  0  0  0
M  END
>  <i_m_Spin_multiplicity> (1)
1

>  <s_j_Task> (1)
Single Point

>  <s_j_QM_Method> (1)
DFT(b3lyp-d3)

>  <s_j_QM_Basis> (1)
cc-pvtz(-f)

>  <i_j_Number_of_canonical_orbitals> (1)
419

>  <i_j_Geometry_convergence_category> (1)
3

>  <r_j_Gas_Phase_Energy> (1)
-578.284150760223

>  <r_j_Final_Energy> (1)
-578.284150760223

>  <r_j_HOMO> (1)
-0.253544266062004

>  <r_j_LUMO> (1)
-0.0180946348005619

>  <r_j_Polarizability> (1)
128.781687154569

>  <r_j_QM_Dipole_(debye)> (1)
1.93875003543582

>  <r_j_QM_Dipole_X_(debye)> (1)
-0.416249571349851

>  <r_j_QM_Dipole_Y_(debye)> (1)
-1.77961363267315

>  <r_j_QM_Dipole_Z_(debye)> (1)
0.646887403384344

>  <r_j_Lowest_Frequency_(cm-1)> (1)
40.3642498484645

>  <r_j_Highest_Frequency_(cm-1)> (1)
3147.21708460633

>  <r_j_2nd_Lowest_Frequency_(cm-1)> (1)
65.2617783096608

>  <i_j_Num_Negative_Frequencies> (1)
0

>  <r_j_Zero_Point_Energy_(kcal/mol)> (1)
143.20891800505

>  <r_j_Entropy_(cal/mol/K)_298.15K_1.00E+00atm> (1)
107.364140451846

>  <r_j_Enthalpy_(kcal/mol)_298.15K_1.00E+00atm> (1)
8.10041729417368

>  <r_j_Free_Energy_(kcal/mol)_298.15K_1.00E+00atm> (1)
-23.9102011815442

>  <r_j_Internal_Energy_(kcal/mol)_298.15K_1.00E+00atm> (1)
7.50793170534641

>  <r_j_Heat_Capacity_(cal/mol/K)_298.15K_1.00E+00atm> (1)
46.2558212917442

>  <r_j_ln(Q)_298.15K_1.00E+00atm> (1)
40.3557514856529

>  <r_j_Total_Internal_Energy_(au)_298.15K_1.00E+00atm> (1)
-578.043968170293

>  <r_j_Total_Enthalpy_(au)_298.15K_1.00E+00atm> (1)
-578.0430239844

>  <r_j_Total_Free_Energy_(au)_298.15K_1.00E+00atm> (1)
-578.094036152353

>  <r_lp_tautomer_probability> (1)
1

>  <r_epik_Ionization_Penalty> (1)
  0.0000

>  <r_epik_Ionization_Penalty_Charging> (1)
  0.0000

>  <r_epik_Ionization_Penalty_Neutral> (1)
  0.0000

>  <r_epik_State_Penalty> (1)
  0.0000

>  <r_epik_Charging_Adjusted_Penalty> (1)
0

>  <i_epik_Tot_Q> (1)
0

>  <i_epik_Tot_abs_Q> (1)
0

>  <s_lp_Force_Field> (1)
S-OPLS

>  <r_lp_Energy> (1)
9.690367

>  <b_lp_Chiralities_Consistent> (1)
1

>  <s_epik_Chemistry_Notes> (1)
This compound has an ester and may undergo hydrolysis at high or low pH.

$$$$
