31222_1,2-Diphenylhydrazine
                    3D
 Schrodinger Suite 2021-3.
 26 27  0  0  1  0            999 V2000
   -2.1214    3.6724   -0.0007 C   0  0  0  0  0  0
   -2.7766    2.4359   -0.0001 C   0  0  0  0  0  0
   -2.0612    1.2481    0.0004 C   0  0  0  0  0  0
   -0.6485    1.2614    0.0003 C   0  0  0  0  0  0
    0.0108    2.5062   -0.0002 C   0  0  0  0  0  0
   -0.7289    3.6883   -0.0006 C   0  0  0  0  0  0
    0.0149    0.0602    0.0006 N   0  0  0  0  0  0
    1.4050   -0.0603    0.0009 N   0  0  0  0  0  0
    2.0685   -1.2614    0.0004 C   0  0  0  0  0  0
    1.4092   -2.5063   -0.0001 C   0  0  0  0  0  0
    2.1489   -3.6883   -0.0006 C   0  0  0  0  0  0
    3.5415   -3.6724   -0.0007 C   0  0  0  0  0  0
    4.1966   -2.4359   -0.0001 C   0  0  0  0  0  0
    3.4812   -1.2481    0.0004 C   0  0  0  0  0  0
   -2.6862    4.5986   -0.0011 H   0  0  0  0  0  0
   -3.8624    2.3957   -0.0001 H   0  0  0  0  0  0
   -2.5852    0.2951    0.0008 H   0  0  0  0  0  0
    1.0940    2.5733   -0.0002 H   0  0  0  0  0  0
   -0.1973    4.6360   -0.0010 H   0  0  0  0  0  0
   -0.4928   -0.8049    0.0012 H   0  0  0  0  0  0
    1.9127    0.8049    0.0009 H   0  0  0  0  0  0
    0.3260   -2.5734   -0.0002 H   0  0  0  0  0  0
    1.6174   -4.6361   -0.0010 H   0  0  0  0  0  0
    4.1062   -4.5986   -0.0011 H   0  0  0  0  0  0
    5.2824   -2.3956   -0.0001 H   0  0  0  0  0  0
    4.0052   -0.2950    0.0008 H   0  0  0  0  0  0
  1  6  1  0  0  0
  1  2  2  0  0  0
  1 15  1  0  0  0
  2  3  1  0  0  0
  2 16  1  0  0  0
  3  4  2  0  0  0
  3 17  1  0  0  0
  4  5  1  0  0  0
  4  7  1  0  0  0
  5  6  2  0  0  0
  5 18  1  0  0  0
  6 19  1  0  0  0
  7  8  1  0  0  0
  7 20  1  0  0  0
  8  9  1  0  0  0
  8 21  1  0  0  0
  9 14  1  0  0  0
  9 10  2  0  0  0
 10 11  1  0  0  0
 10 22  1  0  0  0
 11 12  2  0  0  0
 11 23  1  0  0  0
 12 13  1  0  0  0
 12 24  1  0  0  0
 13 14  2  0  0  0
 13 25  1  0  0  0
 14 26  1  0  0  0
M  END
>  <i_m_Spin_multiplicity> (1)
1

>  <s_j_Task> (1)
Single Point

>  <s_j_QM_Method> (1)
DFT(b3lyp-d3)

>  <s_j_QM_Basis> (1)
cc-pvtz(-f)

>  <i_j_Number_of_canonical_orbitals> (1)
421

>  <i_j_Geometry_convergence_category> (1)
0

>  <r_j_Gas_Phase_Energy> (1)
-574.151276811538

>  <r_j_Final_Energy> (1)
-574.151276811538

>  <r_j_HOMO> (1)
-0.173953704463066

>  <r_j_LUMO> (1)
-0.0230796474388058

>  <r_j_Polarizability> (1)
167.253219846837

>  <r_j_QM_Dipole_(debye)> (1)
0.00135979791431314

>  <r_j_QM_Dipole_X_(debye)> (1)
-0.000852544274754734

>  <r_j_QM_Dipole_Y_(debye)> (1)
0.000644781701683655

>  <r_j_QM_Dipole_Z_(debye)> (1)
0.000840520781734297

>  <r_j_Lowest_Frequency_(cm-1)> (1)
-521.282806554073

>  <r_j_Highest_Frequency_(cm-1)> (1)
3671.63761803886

>  <r_j_2nd_Lowest_Frequency_(cm-1)> (1)
-510.91794297733

>  <i_j_Num_Negative_Frequencies> (1)
2

>  <r_j_Zero_Point_Energy_(kcal/mol)> (1)
132.615663236456

>  <r_j_Entropy_(cal/mol/K)_298.15K_1.00E+00atm> (1)
101.198438511556

>  <r_j_Enthalpy_(kcal/mol)_298.15K_1.00E+00atm> (1)
7.40093709801226

>  <r_j_Free_Energy_(kcal/mol)_298.15K_1.00E+00atm> (1)
-22.7713773442082

>  <r_j_Internal_Energy_(kcal/mol)_298.15K_1.00E+00atm> (1)
6.80845150918499

>  <r_j_Heat_Capacity_(cal/mol/K)_298.15K_1.00E+00atm> (1)
43.8393643444658

>  <r_j_ln(Q)_298.15K_1.00E+00atm> (1)
38.4336391865332

>  <r_j_Total_Internal_Energy_(au)_298.15K_1.00E+00atm> (1)
-573.929090340399

>  <r_j_Total_Enthalpy_(au)_298.15K_1.00E+00atm> (1)
-573.928146154507

>  <r_j_Total_Free_Energy_(au)_298.15K_1.00E+00atm> (1)
-573.97622879849

>  <r_lp_tautomer_probability> (1)
1

>  <r_epik_Ionization_Penalty> (1)
  0.0000

>  <r_epik_Ionization_Penalty_Charging> (1)
  0.0000

>  <r_epik_Ionization_Penalty_Neutral> (1)
  0.0000

>  <r_epik_State_Penalty> (1)
  0.0000

>  <r_epik_Charging_Adjusted_Penalty> (1)
0

>  <i_epik_Tot_Q> (1)
0

>  <i_epik_Tot_abs_Q> (1)
0

>  <s_lp_Force_Field> (1)
S-OPLS

>  <r_lp_Energy> (1)
27.2758

>  <b_lp_Chiralities_Consistent> (1)
1

$$$$
