31236_Phenoxyethanol
                    3D
 Schrodinger Suite 2021-3.
 20 20  0  0  1  0            999 V2000
   -1.8500    3.7820   -0.0003 C   0  0  0  0  0  0
   -2.5576    2.5756   -0.0002 C   0  0  0  0  0  0
   -1.8825    1.3608    0.0000 C   0  0  0  0  0  0
   -0.4812    1.3393    0.0002 C   0  0  0  0  0  0
    0.2369    2.5405    0.0001 C   0  0  0  0  0  0
   -0.4579    3.7534   -0.0001 C   0  0  0  0  0  0
    0.0876    0.0966    0.0005 O   0  0  0  0  0  0
    1.5054   -0.0031    0.0002 C   0  0  0  0  0  0
    1.8367   -1.4861   -0.0001 C   0  0  0  0  0  0
    3.2544   -1.5787   -0.0004 O   0  0  0  0  0  0
   -2.3797    4.7296   -0.0005 H   0  0  0  0  0  0
   -3.6440    2.5814   -0.0003 H   0  0  0  0  0  0
   -2.4140    0.4149    0.0001 H   0  0  0  0  0  0
    1.3202    2.5430    0.0003 H   0  0  0  0  0  0
    0.1050    4.6827   -0.0002 H   0  0  0  0  0  0
    1.9379    0.4738   -0.8898 H   0  0  0  0  0  0
    1.9383    0.4735    0.8902 H   0  0  0  0  0  0
    1.3856   -1.9530    0.8885 H   0  0  0  0  0  0
    1.3853   -1.9527   -0.8887 H   0  0  0  0  0  0
    3.4952   -2.5128   -0.0006 H   0  0  0  0  0  0
  1  6  1  0  0  0
  1  2  2  0  0  0
  1 11  1  0  0  0
  2  3  1  0  0  0
  2 12  1  0  0  0
  3  4  2  0  0  0
  3 13  1  0  0  0
  4  5  1  0  0  0
  4  7  1  0  0  0
  5  6  2  0  0  0
  5 14  1  0  0  0
  6 15  1  0  0  0
  7  8  1  0  0  0
  8  9  1  0  0  0
  8 16  1  0  0  0
  8 17  1  0  0  0
  9 10  1  0  0  0
  9 18  1  0  0  0
  9 19  1  0  0  0
 10 20  1  0  0  0
M  END
>  <i_m_Spin_multiplicity> (1)
1

>  <s_j_Task> (1)
Single Point

>  <s_j_QM_Method> (1)
DFT(b3lyp-d3)

>  <s_j_QM_Basis> (1)
cc-pvtz(-f)

>  <i_j_Number_of_canonical_orbitals> (1)
316

>  <i_j_Geometry_convergence_category> (1)
0

>  <r_j_Gas_Phase_Energy> (1)
-461.469711375498

>  <r_j_Final_Energy> (1)
-461.469711375498

>  <r_j_HOMO> (1)
-0.214537415625256

>  <r_j_LUMO> (1)
0.000351864402695269

>  <r_j_Polarizability> (1)
99.1142479255637

>  <r_j_QM_Dipole_(debye)> (1)
1.32006840049516

>  <r_j_QM_Dipole_X_(debye)> (1)
0.433410183741108

>  <r_j_QM_Dipole_Y_(debye)> (1)
-1.24689054628223

>  <r_j_QM_Dipole_Z_(debye)> (1)
-0.000400259098784347

>  <r_j_Lowest_Frequency_(cm-1)> (1)
65.8751272089805

>  <r_j_Highest_Frequency_(cm-1)> (1)
3786.76248212064

>  <r_j_2nd_Lowest_Frequency_(cm-1)> (1)
123.703685732994

>  <i_j_Num_Negative_Frequencies> (1)
0

>  <r_j_Zero_Point_Energy_(kcal/mol)> (1)
104.002016332047

>  <r_j_Entropy_(cal/mol/K)_298.15K_1.00E+00atm> (1)
93.0370279918929

>  <r_j_Enthalpy_(kcal/mol)_298.15K_1.00E+00atm> (1)
6.26839095178205

>  <r_j_Free_Energy_(kcal/mol)_298.15K_1.00E+00atm> (1)
-21.4705989440008

>  <r_j_Internal_Energy_(kcal/mol)_298.15K_1.00E+00atm> (1)
5.67590536295478

>  <r_j_Heat_Capacity_(cal/mol/K)_298.15K_1.00E+00atm> (1)
34.5065690352303

>  <r_j_ln(Q)_298.15K_1.00E+00atm> (1)
36.2381792044904

>  <r_j_Total_Internal_Energy_(au)_298.15K_1.00E+00atm> (1)
-461.294928480676

>  <r_j_Total_Enthalpy_(au)_298.15K_1.00E+00atm> (1)
-461.293984294784

>  <r_j_Total_Free_Energy_(au)_298.15K_1.00E+00atm> (1)
-461.338189189247

>  <r_lp_tautomer_probability> (1)
1

>  <r_epik_Ionization_Penalty> (1)
  0.0000

>  <r_epik_Ionization_Penalty_Charging> (1)
  0.0000

>  <r_epik_Ionization_Penalty_Neutral> (1)
  0.0000

>  <r_epik_State_Penalty> (1)
  0.0000

>  <r_epik_Charging_Adjusted_Penalty> (1)
0

>  <i_epik_Tot_Q> (1)
0

>  <i_epik_Tot_abs_Q> (1)
0

>  <s_lp_Force_Field> (1)
S-OPLS

>  <r_lp_Energy> (1)
13.917209

>  <b_lp_Chiralities_Consistent> (1)
1

$$$$
