31253_Myrcene
                    3D
 Schrodinger Suite 2021-3.
 26 25  0  0  1  0            999 V2000
   -2.1978    1.1435   -0.1005 C   0  0  0  0  0  0
   -0.6930    1.1852    0.0184 C   0  0  0  0  0  0
    0.0784    0.3429   -0.6850 C   0  0  0  0  0  0
    1.5766    0.2217   -0.6756 C   0  0  0  0  0  0
    2.0461   -1.0761    0.0301 C   0  0  0  0  0  0
    3.5440   -1.2770   -0.0509 C   0  0  0  0  0  0
    4.3380   -1.0077    1.0006 C   0  0  0  0  0  0
    4.1397   -1.7409   -1.3117 C   0  0  0  0  0  0
    3.4823   -2.0973   -2.4239 C   0  0  0  0  0  0
   -0.1743    2.2315    0.9737 C   0  0  0  0  0  0
   -2.5926    2.1098   -0.4419 H   0  0  0  0  0  0
   -2.6635    0.9455    0.8742 H   0  0  0  0  0  0
   -2.5345    0.3732   -0.8003 H   0  0  0  0  0  0
   -0.4270   -0.3783   -1.3298 H   0  0  0  0  0  0
    1.9498    0.2175   -1.7072 H   0  0  0  0  0  0
    2.0529    1.0748   -0.1836 H   0  0  0  0  0  0
    1.7332   -1.0348    1.0785 H   0  0  0  0  0  0
    1.5266   -1.9357   -0.4122 H   0  0  0  0  0  0
    3.9318   -0.6695    1.9491 H   0  0  0  0  0  0
    5.4176   -1.1186    0.9448 H   0  0  0  0  0  0
    5.2281   -1.7988   -1.3140 H   0  0  0  0  0  0
    2.3997   -2.0687   -2.4985 H   0  0  0  0  0  0
    4.0169   -2.4373   -3.3049 H   0  0  0  0  0  0
   -0.4990    3.2334    0.6632 H   0  0  0  0  0  0
    0.9139    2.2415    1.0573 H   0  0  0  0  0  0
   -0.5872    2.0702    1.9782 H   0  0  0  0  0  0
  1  2  1  0  0  0
  1 11  1  0  0  0
  1 12  1  0  0  0
  1 13  1  0  0  0
  2  3  2  0  0  0
  2 10  1  0  0  0
  3  4  1  0  0  0
  3 14  1  0  0  0
  4  5  1  0  0  0
  4 15  1  0  0  0
  4 16  1  0  0  0
  5  6  1  0  0  0
  5 17  1  0  0  0
  5 18  1  0  0  0
  6  7  2  0  0  0
  6  8  1  0  0  0
  7 19  1  0  0  0
  7 20  1  0  0  0
  8  9  2  0  0  0
  8 21  1  0  0  0
  9 22  1  0  0  0
  9 23  1  0  0  0
 10 24  1  0  0  0
 10 25  1  0  0  0
 10 26  1  0  0  0
M  END
>  <i_m_Spin_multiplicity> (1)
1

>  <s_j_Task> (1)
Single Point

>  <s_j_QM_Method> (1)
DFT(b3lyp-d3)

>  <s_j_QM_Basis> (1)
cc-pvtz(-f)

>  <i_j_Number_of_canonical_orbitals> (1)
369

>  <i_j_Geometry_convergence_category> (1)
0

>  <r_j_Gas_Phase_Energy> (1)
-390.802680884683

>  <r_j_Final_Energy> (1)
-390.802680884683

>  <r_j_HOMO> (1)
-0.229273070479544

>  <r_j_LUMO> (1)
-0.0396837208171047

>  <r_j_Polarizability> (1)
124.627704289587

>  <r_j_QM_Dipole_(debye)> (1)
0.452660984396268

>  <r_j_QM_Dipole_X_(debye)> (1)
-0.272485585072323

>  <r_j_QM_Dipole_Y_(debye)> (1)
0.305998316338533

>  <r_j_QM_Dipole_Z_(debye)> (1)
0.192402191048791

>  <r_j_Lowest_Frequency_(cm-1)> (1)
69.018881134733

>  <r_j_Highest_Frequency_(cm-1)> (1)
3184.21760381047

>  <r_j_2nd_Lowest_Frequency_(cm-1)> (1)
72.4238236721428

>  <i_j_Num_Negative_Frequencies> (1)
0

>  <r_j_Zero_Point_Energy_(kcal/mol)> (1)
145.254458856235

>  <r_j_Entropy_(cal/mol/K)_298.15K_1.00E+00atm> (1)
102.427795817666

>  <r_j_Enthalpy_(kcal/mol)_298.15K_1.00E+00atm> (1)
7.70427868656045

>  <r_j_Free_Energy_(kcal/mol)_298.15K_1.00E+00atm> (1)
-22.8345686364766

>  <r_j_Internal_Energy_(kcal/mol)_298.15K_1.00E+00atm> (1)
7.11179309773318

>  <r_j_Heat_Capacity_(cal/mol/K)_298.15K_1.00E+00atm> (1)
43.5569000229083

>  <r_j_ln(Q)_298.15K_1.00E+00atm> (1)
38.5402937507287

>  <r_j_Total_Internal_Energy_(au)_298.15K_1.00E+00atm> (1)
-390.559869804949

>  <r_j_Total_Enthalpy_(au)_298.15K_1.00E+00atm> (1)
-390.558925619056

>  <r_j_Total_Free_Energy_(au)_298.15K_1.00E+00atm> (1)
-390.607592370369

>  <r_lp_tautomer_probability> (1)
1

>  <r_epik_Ionization_Penalty> (1)
  0.0000

>  <r_epik_Ionization_Penalty_Charging> (1)
  0.0000

>  <r_epik_Ionization_Penalty_Neutral> (1)
  0.0000

>  <r_epik_State_Penalty> (1)
  0.0000

>  <r_epik_Charging_Adjusted_Penalty> (1)
0

>  <i_epik_Tot_Q> (1)
0

>  <i_epik_Tot_abs_Q> (1)
0

>  <s_lp_Force_Field> (1)
S-OPLS

>  <r_lp_Energy> (1)
-3.004376

>  <b_lp_Chiralities_Consistent> (1)
1

$$$$
