31265_Ethylhexanoate
                    3D
 Schrodinger Suite 2021-3.
 26 25  0  0  1  0            999 V2000
   -2.6148    2.9478    0.0001 C   0  0  0  0  0  0
   -2.1001    1.5058    0.0002 C   0  0  0  0  0  0
   -0.5697    1.4142    0.0000 C   0  0  0  0  0  0
   -0.0583   -0.0293    0.0000 C   0  0  0  0  0  0
    1.4676   -0.1198    0.0001 C   0  0  0  0  0  0
    1.9681   -1.5499   -0.0003 C   0  0  0  0  0  0
    1.2684   -2.5408   -0.0010 O   0  0  0  0  0  0
    3.3202   -1.5911    0.0004 O   0  0  0  0  0  0
    3.9057   -2.9137    0.0003 C   0  0  0  0  0  0
    5.4119   -2.7400    0.0002 C   0  0  0  0  0  0
   -3.7090    2.9840    0.0002 H   0  0  0  0  0  0
   -2.2629    3.4921   -0.8839 H   0  0  0  0  0  0
   -2.2627    3.4923    0.8840 H   0  0  0  0  0  0
   -2.4924    0.9738    0.8775 H   0  0  0  0  0  0
   -2.4925    0.9737   -0.8770 H   0  0  0  0  0  0
   -0.1743    1.9456   -0.8780 H   0  0  0  0  0  0
   -0.1742    1.9456    0.8780 H   0  0  0  0  0  0
   -0.4479   -0.5654    0.8735 H   0  0  0  0  0  0
   -0.4477   -0.5654   -0.8735 H   0  0  0  0  0  0
    1.8990    0.3871   -0.8727 H   0  0  0  0  0  0
    1.8987    0.3864    0.8734 H   0  0  0  0  0  0
    3.5525   -3.4590    0.8819 H   0  0  0  0  0  0
    3.5524   -3.4590   -0.8814 H   0  0  0  0  0  0
    5.9002   -3.7195    0.0001 H   0  0  0  0  0  0
    5.7392   -2.1897    0.8869 H   0  0  0  0  0  0
    5.7391   -2.1897   -0.8866 H   0  0  0  0  0  0
  1  2  1  0  0  0
  1 11  1  0  0  0
  1 12  1  0  0  0
  1 13  1  0  0  0
  2  3  1  0  0  0
  2 14  1  0  0  0
  2 15  1  0  0  0
  3  4  1  0  0  0
  3 16  1  0  0  0
  3 17  1  0  0  0
  4  5  1  0  0  0
  4 18  1  0  0  0
  4 19  1  0  0  0
  5  6  1  0  0  0
  5 20  1  0  0  0
  5 21  1  0  0  0
  6  7  2  0  0  0
  6  8  1  0  0  0
  8  9  1  0  0  0
  9 10  1  0  0  0
  9 22  1  0  0  0
  9 23  1  0  0  0
 10 24  1  0  0  0
 10 25  1  0  0  0
 10 26  1  0  0  0
M  END
>  <i_m_Spin_multiplicity> (1)
1

>  <s_j_Task> (1)
Single Point

>  <s_j_QM_Method> (1)
DFT(b3lyp-d3)

>  <s_j_QM_Basis> (1)
cc-pvtz(-f)

>  <i_j_Number_of_canonical_orbitals> (1)
372

>  <i_j_Geometry_convergence_category> (1)
0

>  <r_j_Gas_Phase_Energy> (1)
-465.146505820034

>  <r_j_Final_Energy> (1)
-465.146505820034

>  <r_j_HOMO> (1)
-0.285096058009869

>  <r_j_LUMO> (1)
-0.00143544061293832

>  <r_j_Polarizability> (1)
105.139009494068

>  <r_j_QM_Dipole_(debye)> (1)
1.71579542114068

>  <r_j_QM_Dipole_X_(debye)> (1)
1.42450590079572

>  <r_j_QM_Dipole_Y_(debye)> (1)
0.956418181336541

>  <r_j_QM_Dipole_Z_(debye)> (1)
0.00106217437289869

>  <r_j_Lowest_Frequency_(cm-1)> (1)
66.7158327864657

>  <r_j_Highest_Frequency_(cm-1)> (1)
3074.02579474423

>  <r_j_2nd_Lowest_Frequency_(cm-1)> (1)
82.2354219526615

>  <i_j_Num_Negative_Frequencies> (1)
0

>  <r_j_Zero_Point_Energy_(kcal/mol)> (1)
145.425733907996

>  <r_j_Entropy_(cal/mol/K)_298.15K_1.00E+00atm> (1)
105.795895638346

>  <r_j_Enthalpy_(kcal/mol)_298.15K_1.00E+00atm> (1)
8.01589572206941

>  <r_j_Free_Energy_(kcal/mol)_298.15K_1.00E+00atm> (1)
-23.5271505625035

>  <r_j_Internal_Energy_(kcal/mol)_298.15K_1.00E+00atm> (1)
7.42341013324213

>  <r_j_Heat_Capacity_(cal/mol/K)_298.15K_1.00E+00atm> (1)
42.9580022751146

>  <r_j_ln(Q)_298.15K_1.00E+00atm> (1)
39.7092368256104

>  <r_j_Total_Internal_Energy_(au)_298.15K_1.00E+00atm> (1)
-464.90292520277

>  <r_j_Total_Enthalpy_(au)_298.15K_1.00E+00atm> (1)
-464.901981016878

>  <r_j_Total_Free_Energy_(au)_298.15K_1.00E+00atm> (1)
-464.95224806111

>  <r_lp_tautomer_probability> (1)
1

>  <r_epik_Ionization_Penalty> (1)
  0.0000

>  <r_epik_Ionization_Penalty_Charging> (1)
  0.0000

>  <r_epik_Ionization_Penalty_Neutral> (1)
  0.0000

>  <r_epik_State_Penalty> (1)
  0.0000

>  <r_epik_Charging_Adjusted_Penalty> (1)
0

>  <i_epik_Tot_Q> (1)
0

>  <i_epik_Tot_abs_Q> (1)
0

>  <s_lp_Force_Field> (1)
S-OPLS

>  <r_lp_Energy> (1)
1.552438

>  <b_lp_Chiralities_Consistent> (1)
1

>  <s_epik_Chemistry_Notes> (1)
This compound has an ester and may undergo hydrolysis at high or low pH.

$$$$
