31276_Isoamyl acetate
                    3D
 Schrodinger Suite 2021-3.
 23 22  0  0  1  0            999 V2000
   -0.7550   -0.6514   -1.2411 C   0  0  0  0  0  0
   -0.0571    0.0050   -0.0399 C   0  0  0  0  0  0
   -0.4264    1.4922    0.0512 C   0  0  0  0  0  0
    1.4735   -0.1572   -0.0919 C   0  0  0  0  0  0
    1.9407   -1.6037   -0.0486 C   0  0  0  0  0  0
    3.3858   -1.5817    0.0237 O   0  0  0  0  0  0
    3.9888   -2.7902    0.0479 C   0  0  0  0  0  0
    3.3879   -3.8426    0.0149 O   0  0  0  0  0  0
    5.4935   -2.6594    0.1147 C   0  0  0  0  0  0
   -0.3855   -0.2257   -2.1823 H   0  0  0  0  0  0
   -1.8363   -0.4836   -1.2027 H   0  0  0  0  0  0
   -0.5922   -1.7329   -1.2764 H   0  0  0  0  0  0
   -0.4168   -0.4896    0.8751 H   0  0  0  0  0  0
   -0.0899    2.0309   -0.8430 H   0  0  0  0  0  0
    0.0380    1.9679    0.9218 H   0  0  0  0  0  0
   -1.5104    1.6260    0.1316 H   0  0  0  0  0  0
    1.8633    0.3183   -1.0017 H   0  0  0  0  0  0
    1.9256    0.3719    0.7559 H   0  0  0  0  0  0
    1.5476   -2.1329    0.8272 H   0  0  0  0  0  0
    1.6430   -2.1724   -0.9341 H   0  0  0  0  0  0
    5.8110   -1.6196    0.1959 H   0  0  0  0  0  0
    5.9245   -3.1078   -0.7850 H   0  0  0  0  0  0
    5.8586   -3.2314    0.9716 H   0  0  0  0  0  0
  1  2  1  0  0  0
  1 10  1  0  0  0
  1 11  1  0  0  0
  1 12  1  0  0  0
  2  3  1  0  0  0
  2  4  1  0  0  0
  2 13  1  0  0  0
  3 14  1  0  0  0
  3 15  1  0  0  0
  3 16  1  0  0  0
  4  5  1  0  0  0
  4 17  1  0  0  0
  4 18  1  0  0  0
  5  6  1  0  0  0
  5 19  1  0  0  0
  5 20  1  0  0  0
  6  7  1  0  0  0
  7  8  2  0  0  0
  7  9  1  0  0  0
  9 21  1  0  0  0
  9 22  1  0  0  0
  9 23  1  0  0  0
M  END
>  <i_m_Spin_multiplicity> (1)
1

>  <s_j_Task> (1)
Single Point

>  <s_j_QM_Method> (1)
DFT(b3lyp-d3)

>  <s_j_QM_Basis> (1)
cc-pvtz(-f)

>  <i_j_Number_of_canonical_orbitals> (1)
332

>  <i_j_Geometry_convergence_category> (1)
3

>  <r_j_Gas_Phase_Energy> (1)
-425.816437051344

>  <r_j_Final_Energy> (1)
-425.816437051344

>  <r_j_HOMO> (1)
-0.291144547121127

>  <r_j_LUMO> (1)
-0.00987351691417014

>  <r_j_Polarizability> (1)
92.4278235210697

>  <r_j_QM_Dipole_(debye)> (1)
1.97728905724867

>  <r_j_QM_Dipole_X_(debye)> (1)
0.0901641848933832

>  <r_j_QM_Dipole_Y_(debye)> (1)
1.97455733019786

>  <r_j_QM_Dipole_Z_(debye)> (1)
0.05163124480139

>  <r_j_Lowest_Frequency_(cm-1)> (1)
70.4611518098364

>  <r_j_Highest_Frequency_(cm-1)> (1)
3109.52692046715

>  <r_j_2nd_Lowest_Frequency_(cm-1)> (1)
82.9481399003877

>  <i_j_Num_Negative_Frequencies> (1)
0

>  <r_j_Zero_Point_Energy_(kcal/mol)> (1)
127.379710934951

>  <r_j_Entropy_(cal/mol/K)_298.15K_1.00E+00atm> (1)
99.1588091391729

>  <r_j_Enthalpy_(kcal/mol)_298.15K_1.00E+00atm> (1)
7.21589369001845

>  <r_j_Free_Energy_(kcal/mol)_298.15K_1.00E+00atm> (1)
-22.3483052548259

>  <r_j_Internal_Energy_(kcal/mol)_298.15K_1.00E+00atm> (1)
6.62340810119118

>  <r_j_Heat_Capacity_(cal/mol/K)_298.15K_1.00E+00atm> (1)
38.6811557332775

>  <r_j_ln(Q)_298.15K_1.00E+00atm> (1)
37.7195760981472

>  <r_j_Total_Internal_Energy_(au)_298.15K_1.00E+00atm> (1)
-425.602889486817

>  <r_j_Total_Enthalpy_(au)_298.15K_1.00E+00atm> (1)
-425.601945300925

>  <r_j_Total_Free_Energy_(au)_298.15K_1.00E+00atm> (1)
-425.649058851171

>  <r_lp_tautomer_probability> (1)
1

>  <r_epik_Ionization_Penalty> (1)
  0.0000

>  <r_epik_Ionization_Penalty_Charging> (1)
  0.0000

>  <r_epik_Ionization_Penalty_Neutral> (1)
  0.0000

>  <r_epik_State_Penalty> (1)
  0.0000

>  <r_epik_Charging_Adjusted_Penalty> (1)
0

>  <i_epik_Tot_Q> (1)
0

>  <i_epik_Tot_abs_Q> (1)
0

>  <s_lp_Force_Field> (1)
S-OPLS

>  <r_lp_Energy> (1)
1.454918

>  <b_lp_Chiralities_Consistent> (1)
1

>  <s_epik_Chemistry_Notes> (1)
This compound has an ester and may undergo hydrolysis at high or low pH.

$$$$
