31289_Nonanal
                    3D
 Schrodinger Suite 2021-3.
 28 27  0  0  1  0            999 V2000
   -2.6585    2.9830    0.0186 C   0  0  0  0  0  0
   -2.1255    1.5473    0.0422 C   0  0  0  0  0  0
   -0.5944    1.4758    0.0039 C   0  0  0  0  0  0
   -0.0503    0.0431    0.0267 C   0  0  0  0  0  0
    1.4806   -0.0264   -0.0054 C   0  0  0  0  0  0
    2.0230   -1.4593    0.0148 C   0  0  0  0  0  0
    3.5554   -1.5230   -0.0059 C   0  0  0  0  0  0
    4.1014   -2.9639    0.0142 C   0  0  0  0  0  0
    3.7547   -3.7098   -1.2541 C   0  0  0  0  0  0
    3.1582   -4.7625   -1.3031 O   0  0  0  0  0  0
   -3.7527    3.0073    0.0477 H   0  0  0  0  0  0
   -2.3370    3.5078   -0.8885 H   0  0  0  0  0  0
   -2.2890    3.5546    0.8779 H   0  0  0  0  0  0
   -2.4884    1.0344    0.9433 H   0  0  0  0  0  0
   -2.5346    0.9883   -0.8103 H   0  0  0  0  0  0
   -0.2297    1.9895   -0.8973 H   0  0  0  0  0  0
   -0.1840    2.0349    0.8572 H   0  0  0  0  0  0
   -0.4180   -0.4716    0.9259 H   0  0  0  0  0  0
   -0.4574   -0.5146   -0.8286 H   0  0  0  0  0  0
    1.8496    0.4894   -0.9036 H   0  0  0  0  0  0
    1.8883    0.5288    0.8515 H   0  0  0  0  0  0
    1.6531   -1.9805    0.9086 H   0  0  0  0  0  0
    1.6179   -2.0143   -0.8431 H   0  0  0  0  0  0
    3.9336   -1.0034   -0.8978 H   0  0  0  0  0  0
    3.9588   -0.9787    0.8563 H   0  0  0  0  0  0
    5.1981   -2.9376    0.0898 H   0  0  0  0  0  0
    3.7134   -3.5305    0.8666 H   0  0  0  0  0  0
    4.0895   -3.2007   -2.1904 H   0  0  0  0  0  0
  1  2  1  0  0  0
  1 11  1  0  0  0
  1 12  1  0  0  0
  1 13  1  0  0  0
  2  3  1  0  0  0
  2 14  1  0  0  0
  2 15  1  0  0  0
  3  4  1  0  0  0
  3 16  1  0  0  0
  3 17  1  0  0  0
  4  5  1  0  0  0
  4 18  1  0  0  0
  4 19  1  0  0  0
  5  6  1  0  0  0
  5 20  1  0  0  0
  5 21  1  0  0  0
  6  7  1  0  0  0
  6 22  1  0  0  0
  6 23  1  0  0  0
  7  8  1  0  0  0
  7 24  1  0  0  0
  7 25  1  0  0  0
  8  9  1  0  0  0
  8 26  1  0  0  0
  8 27  1  0  0  0
  9 10  2  0  0  0
  9 28  1  0  0  0
M  END
>  <i_m_Spin_multiplicity> (1)
1

>  <s_j_Task> (1)
Single Point

>  <s_j_QM_Method> (1)
DFT(b3lyp-d3)

>  <s_j_QM_Basis> (1)
cc-pvtz(-f)

>  <i_j_Number_of_canonical_orbitals> (1)
388

>  <i_j_Geometry_convergence_category> (1)
1

>  <r_j_Gas_Phase_Energy> (1)
-429.196942732422

>  <r_j_Final_Energy> (1)
-429.196942732422

>  <r_j_HOMO> (1)
-0.272389464705958

>  <r_j_LUMO> (1)
-0.0470995246565332

>  <r_j_Polarizability> (1)
112.728407956125

>  <r_j_QM_Dipole_(debye)> (1)
2.82345451007187

>  <r_j_QM_Dipole_X_(debye)> (1)
0.960513866041181

>  <r_j_QM_Dipole_Y_(debye)> (1)
2.55825638209915

>  <r_j_QM_Dipole_Z_(debye)> (1)
0.710375088975404

>  <r_j_Lowest_Frequency_(cm-1)> (1)
58.8264558769072

>  <r_j_Highest_Frequency_(cm-1)> (1)
3047.43009029089

>  <r_j_2nd_Lowest_Frequency_(cm-1)> (1)
83.5539025856865

>  <i_j_Num_Negative_Frequencies> (1)
0

>  <r_j_Zero_Point_Energy_(kcal/mol)> (1)
160.070439617384

>  <r_j_Entropy_(cal/mol/K)_298.15K_1.00E+00atm> (1)
106.885553266665

>  <r_j_Enthalpy_(kcal/mol)_298.15K_1.00E+00atm> (1)
8.11773930728033

>  <r_j_Free_Energy_(kcal/mol)_298.15K_1.00E+00atm> (1)
-23.7501883991759

>  <r_j_Internal_Energy_(kcal/mol)_298.15K_1.00E+00atm> (1)
7.52525371845305

>  <r_j_Heat_Capacity_(cal/mol/K)_298.15K_1.00E+00atm> (1)
44.009837554643

>  <r_j_ln(Q)_298.15K_1.00E+00atm> (1)
40.0856811491152

>  <r_j_Total_Internal_Energy_(au)_298.15K_1.00E+00atm> (1)
-428.92986199285

>  <r_j_Total_Enthalpy_(au)_298.15K_1.00E+00atm> (1)
-428.928917806958

>  <r_j_Total_Free_Energy_(au)_298.15K_1.00E+00atm> (1)
-428.979702582695

>  <r_lp_tautomer_probability> (1)
1

>  <r_epik_Ionization_Penalty> (1)
  0.0000

>  <r_epik_Ionization_Penalty_Charging> (1)
  0.0000

>  <r_epik_Ionization_Penalty_Neutral> (1)
  0.0000

>  <r_epik_State_Penalty> (1)
  0.0000

>  <r_epik_Charging_Adjusted_Penalty> (1)
0

>  <i_epik_Tot_Q> (1)
0

>  <i_epik_Tot_abs_Q> (1)
0

>  <s_lp_Force_Field> (1)
S-OPLS

>  <r_lp_Energy> (1)
3.158529

>  <b_lp_Chiralities_Consistent> (1)
1

$$$$
