312_Chloride ion
                    3D
 Schrodinger Suite 2021-3.
  1  0  0  0  1  0            999 V2000
    0.0000    0.0000    0.0000 Cl  0  5  0  0  0  0
M  END
>  <i_m_Spin_multiplicity> (1)
1

>  <s_j_Task> (1)
Single Point

>  <s_j_QM_Method> (1)
DFT(b3lyp-d3)

>  <s_j_QM_Basis> (1)
cc-pvtz(-f)

>  <i_j_Number_of_canonical_orbitals> (1)
27

>  <r_j_Gas_Phase_Energy> (1)
-460.297537715793

>  <r_j_Final_Energy> (1)
-460.297537715793

>  <r_j_Polarizability> (1)
10.7830511238426

>  <r_j_QM_Dipole_(debye)> (1)
3.76499568925036e-09

>  <r_j_QM_Dipole_X_(debye)> (1)
-1.68858903713265e-12

>  <r_j_QM_Dipole_Y_(debye)> (1)
3.54797602082147e-09

>  <r_j_QM_Dipole_Z_(debye)> (1)
1.25978404673846e-09

>  <r_j_Zero_Point_Energy_(kcal/mol)> (1)
0

>  <r_j_Entropy_(cal/mol/K)_298.15K_1.00E+00atm> (1)
36.5860804438615

>  <r_j_Enthalpy_(kcal/mol)_298.15K_1.00E+00atm> (1)
1.48121397206819

>  <r_j_Free_Energy_(kcal/mol)_298.15K_1.00E+00atm> (1)
-9.42692591226912

>  <r_j_Internal_Energy_(kcal/mol)_298.15K_1.00E+00atm> (1)
0.888728383240912

>  <r_j_Heat_Capacity_(cal/mol/K)_298.15K_1.00E+00atm> (1)
2.98080960335707

>  <r_j_ln(Q)_298.15K_1.00E+00atm> (1)
15.9108104737672

>  <r_j_Total_Internal_Energy_(au)_298.15K_1.00E+00atm> (1)
-460.296121436955

>  <r_j_Total_Enthalpy_(au)_298.15K_1.00E+00atm> (1)
-460.295177251063

>  <r_j_Total_Free_Energy_(au)_298.15K_1.00E+00atm> (1)
-460.312560478577

>  <r_j_HOMO> (1)
0.000412077012416634

>  <r_j_LUMO> (1)
0.613414116167382

$$$$
