31347_Sulfolane
                    3D
 Schrodinger Suite 2021-3.
 15 15  0  0  1  0            999 V2000
   -0.0010  -11.6594   -1.2010 C   0  0  0  0  0  0
   -0.6050  -12.7928   -2.0595 C   0  0  0  0  0  0
   -2.0856  -12.8942   -1.6786 C   0  0  0  0  0  0
   -2.6292  -11.1568   -1.4055 S   0  0  2  0  0  0
   -3.3203  -10.6612   -2.6076 O   0  0  0  0  0  0
   -3.2537  -11.0475   -0.0764 O   0  0  0  0  0  0
   -0.9303  -10.4502   -1.3487 C   0  0  0  0  0  0
    1.0181  -11.4129   -1.5106 H   0  0  0  0  0  0
    0.0372  -11.9721   -0.1514 H   0  0  0  0  0  0
   -0.5115  -12.5408   -3.1218 H   0  0  0  0  0  0
   -0.0909  -13.7441   -1.8981 H   0  0  0  0  0  0
   -2.7317  -13.3198   -2.4478 H   0  0  0  0  0  0
   -2.2376  -13.4120   -0.7286 H   0  0  0  0  0  0
   -0.9007   -9.7416   -0.5198 H   0  0  0  0  0  0
   -0.7878   -9.9279   -2.2976 H   0  0  0  0  0  0
  1  7  1  0  0  0
  1  2  1  0  0  0
  1  8  1  0  0  0
  1  9  1  0  0  0
  2  3  1  0  0  0
  2 10  1  0  0  0
  2 11  1  0  0  0
  3  4  1  0  0  0
  3 12  1  0  0  0
  3 13  1  0  0  0
  4  5  2  0  0  0
  4  6  2  0  0  0
  4  7  1  0  0  0
  7 14  1  0  0  0
  7 15  1  0  0  0
M  END
>  <i_m_Spin_multiplicity> (1)
1

>  <s_j_Task> (1)
Single Point

>  <s_j_QM_Method> (1)
DFT(b3lyp-d3)

>  <s_j_QM_Basis> (1)
cc-pvtz(-f)

>  <i_j_Number_of_canonical_orbitals> (1)
237

>  <i_j_Geometry_convergence_category> (1)
0

>  <r_j_Gas_Phase_Energy> (1)
-705.992443227597

>  <r_j_Final_Energy> (1)
-705.992443227597

>  <r_j_HOMO> (1)
-0.340492604520228

>  <r_j_LUMO> (1)
-0.0495078032942374

>  <r_j_Polarizability> (1)
68.7596107999451

>  <r_j_QM_Dipole_(debye)> (1)
5.24272642400537

>  <r_j_QM_Dipole_X_(debye)> (1)
4.74516840538993

>  <r_j_QM_Dipole_Y_(debye)> (1)
-2.18190315815132

>  <r_j_QM_Dipole_Z_(debye)> (1)
-0.457007406835639

>  <r_j_Lowest_Frequency_(cm-1)> (1)
107.998624080177

>  <r_j_Highest_Frequency_(cm-1)> (1)
3105.60938554027

>  <r_j_2nd_Lowest_Frequency_(cm-1)> (1)
253.895261047497

>  <i_j_Num_Negative_Frequencies> (1)
0

>  <r_j_Zero_Point_Energy_(kcal/mol)> (1)
76.6517097984724

>  <r_j_Entropy_(cal/mol/K)_298.15K_1.00E+00atm> (1)
80.3132639911238

>  <r_j_Enthalpy_(kcal/mol)_298.15K_1.00E+00atm> (1)
4.70500158781445

>  <r_j_Free_Energy_(kcal/mol)_298.15K_1.00E+00atm> (1)
-19.2403980711391

>  <r_j_Internal_Energy_(kcal/mol)_298.15K_1.00E+00atm> (1)
4.11251599898717

>  <r_j_Heat_Capacity_(cal/mol/K)_298.15K_1.00E+00atm> (1)
25.2859260194794

>  <r_j_ln(Q)_298.15K_1.00E+00atm> (1)
32.4740355444294

>  <r_j_Total_Internal_Energy_(au)_298.15K_1.00E+00atm> (1)
-705.863737240422

>  <r_j_Total_Enthalpy_(au)_298.15K_1.00E+00atm> (1)
-705.86279305453

>  <r_j_Total_Free_Energy_(au)_298.15K_1.00E+00atm> (1)
-705.900952478099

>  <r_lp_tautomer_probability> (1)
1

>  <r_epik_Ionization_Penalty> (1)
  0.0000

>  <r_epik_Ionization_Penalty_Charging> (1)
  0.0000

>  <r_epik_Ionization_Penalty_Neutral> (1)
  0.0000

>  <r_epik_State_Penalty> (1)
  0.0000

>  <r_epik_Charging_Adjusted_Penalty> (1)
0

>  <i_epik_Tot_Q> (1)
0

>  <i_epik_Tot_abs_Q> (1)
0

>  <s_lp_Force_Field> (1)
S-OPLS

>  <r_lp_Energy> (1)
-3.256037

>  <b_lp_Chiralities_Consistent> (1)
1

$$$$
