31357_Tributyl phosphate
                    3D
 Schrodinger Suite 2021-3.
 44 43  0  0  1  0            999 V2000
   -3.4718   -1.1685   -0.7800 C   0  0  0  0  0  0
   -2.1629   -0.3977   -0.9674 C   0  0  0  0  0  0
   -2.2938    1.0892   -0.6183 C   0  0  0  0  0  0
   -1.0136    1.8776   -0.8494 C   0  0  0  0  0  0
    0.0229    1.3665    0.0307 O   0  0  0  0  0  0
    1.4371    0.8889   -0.5426 P   0  0  1  0  0  0
    2.3170    0.3070    0.4930 O   0  0  0  0  0  0
    1.1216   -0.0959   -1.7905 O   0  0  0  0  0  0
    1.2138   -1.5303   -1.5915 C   0  0  0  0  0  0
    2.6175   -2.0324   -1.8959 C   0  0  0  0  0  0
    2.7214   -3.5584   -1.7861 C   0  0  0  0  0  0
    4.1336   -4.0730   -2.0799 C   0  0  0  0  0  0
    1.9223    2.2078   -1.3214 O   0  0  0  0  0  0
    3.1045    2.1721   -2.1648 C   0  0  0  0  0  0
    4.3934    1.9871   -1.3697 C   0  0  0  0  0  0
    4.5780    3.0250   -0.2577 C   0  0  0  0  0  0
    5.8804    2.8215    0.5199 C   0  0  0  0  0  0
   -3.3497   -2.2283   -1.0261 H   0  0  0  0  0  0
   -4.2653   -0.7665   -1.4206 H   0  0  0  0  0  0
   -3.8208   -1.1058    0.2570 H   0  0  0  0  0  0
   -1.3824   -0.8376   -0.3373 H   0  0  0  0  0  0
   -1.8134   -0.4958   -2.0037 H   0  0  0  0  0  0
   -3.0852    1.5510   -1.2248 H   0  0  0  0  0  0
   -2.5952    1.2001    0.4309 H   0  0  0  0  0  0
   -0.6893    1.8008   -1.8921 H   0  0  0  0  0  0
   -1.1403    2.9363   -0.6046 H   0  0  0  0  0  0
    0.9284   -1.7860   -0.5656 H   0  0  0  0  0  0
    0.4750   -1.9638   -2.2724 H   0  0  0  0  0  0
    2.8975   -1.7061   -2.9060 H   0  0  0  0  0  0
    3.3101   -1.5560   -1.1930 H   0  0  0  0  0  0
    2.4203   -3.8707   -0.7773 H   0  0  0  0  0  0
    2.0078   -4.0262   -2.4784 H   0  0  0  0  0  0
    4.1881   -5.1630   -1.9946 H   0  0  0  0  0  0
    4.8600   -3.6452   -1.3800 H   0  0  0  0  0  0
    4.4493   -3.8002   -3.0933 H   0  0  0  0  0  0
    2.9766    1.3819   -2.9130 H   0  0  0  0  0  0
    3.0966    3.1391   -2.6759 H   0  0  0  0  0  0
    4.4118    0.9824   -0.9333 H   0  0  0  0  0  0
    5.2265    2.0423   -2.0845 H   0  0  0  0  0  0
    4.5526    4.0345   -0.6914 H   0  0  0  0  0  0
    3.7276    2.9562    0.4277 H   0  0  0  0  0  0
    5.9923    3.5689    1.3119 H   0  0  0  0  0  0
    6.7552    2.8970   -0.1369 H   0  0  0  0  0  0
    5.9004    1.8323    0.9905 H   0  0  0  0  0  0
  1  2  1  0  0  0
  1 18  1  0  0  0
  1 19  1  0  0  0
  1 20  1  0  0  0
  2  3  1  0  0  0
  2 21  1  0  0  0
  2 22  1  0  0  0
  3  4  1  0  0  0
  3 23  1  0  0  0
  3 24  1  0  0  0
  4  5  1  0  0  0
  4 25  1  0  0  0
  4 26  1  0  0  0
  5  6  1  0  0  0
  6  7  2  0  0  0
  6  8  1  0  0  0
  6 13  1  0  0  0
  8  9  1  0  0  0
  9 10  1  0  0  0
  9 27  1  0  0  0
  9 28  1  0  0  0
 10 11  1  0  0  0
 10 29  1  0  0  0
 10 30  1  0  0  0
 11 12  1  0  0  0
 11 31  1  0  0  0
 11 32  1  0  0  0
 12 33  1  0  0  0
 12 34  1  0  0  0
 12 35  1  0  0  0
 13 14  1  0  0  0
 14 15  1  0  0  0
 14 36  1  0  0  0
 14 37  1  0  0  0
 15 16  1  0  0  0
 15 38  1  0  0  0
 15 39  1  0  0  0
 16 17  1  0  0  0
 16 40  1  0  0  0
 16 41  1  0  0  0
 17 42  1  0  0  0
 17 43  1  0  0  0
 17 44  1  0  0  0
M  END
>  <i_m_Spin_multiplicity> (1)
1

>  <s_j_Task> (1)
Single Point

>  <s_j_QM_Method> (1)
DFT(b3lyp-d3)

>  <s_j_QM_Basis> (1)
cc-pvtz(-f)

>  <i_j_Number_of_canonical_orbitals> (1)
637

>  <i_j_Geometry_convergence_category> (1)
0

>  <r_j_Gas_Phase_Energy> (1)
-1116.24837392906

>  <r_j_Final_Energy> (1)
-1116.24837392906

>  <r_j_HOMO> (1)
-0.277308001697644

>  <r_j_LUMO> (1)
0.0257925281159024

>  <r_j_Polarizability> (1)
179.500533381099

>  <r_j_QM_Dipole_(debye)> (1)
3.46103396575122

>  <r_j_QM_Dipole_X_(debye)> (1)
-1.20912138362556

>  <r_j_QM_Dipole_Y_(debye)> (1)
-0.356708737210484

>  <r_j_QM_Dipole_Z_(debye)> (1)
-3.22328100986258

>  <r_j_Lowest_Frequency_(cm-1)> (1)
29.0773623922036

>  <r_j_Highest_Frequency_(cm-1)> (1)
3056.46294433435

>  <r_j_2nd_Lowest_Frequency_(cm-1)> (1)
45.1020951668208

>  <i_j_Num_Negative_Frequencies> (1)
0

>  <r_j_Zero_Point_Energy_(kcal/mol)> (1)
245.33136946037

>  <r_j_Entropy_(cal/mol/K)_298.15K_1.00E+00atm> (1)
144.105962082032

>  <r_j_Enthalpy_(kcal/mol)_298.15K_1.00E+00atm> (1)
13.396107282176

>  <r_j_Free_Energy_(kcal/mol)_298.15K_1.00E+00atm> (1)
-29.5690853125818

>  <r_j_Internal_Energy_(kcal/mol)_298.15K_1.00E+00atm> (1)
12.8036216933487

>  <r_j_Heat_Capacity_(cal/mol/K)_298.15K_1.00E+00atm> (1)
77.0852930553956

>  <r_j_ln(Q)_298.15K_1.00E+00atm> (1)
49.9068430864435

>  <r_j_Total_Internal_Energy_(au)_298.15K_1.00E+00atm> (1)
-1115.83700963339

>  <r_j_Total_Enthalpy_(au)_298.15K_1.00E+00atm> (1)
-1115.8360654475

>  <r_j_Total_Free_Energy_(au)_298.15K_1.00E+00atm> (1)
-1115.90453484063

>  <r_lp_tautomer_probability> (1)
1

>  <r_epik_Ionization_Penalty> (1)
  0.0000

>  <r_epik_Ionization_Penalty_Charging> (1)
  0.0000

>  <r_epik_Ionization_Penalty_Neutral> (1)
  0.0000

>  <r_epik_State_Penalty> (1)
  0.0000

>  <r_epik_Charging_Adjusted_Penalty> (1)
0

>  <i_epik_Tot_Q> (1)
0

>  <i_epik_Tot_abs_Q> (1)
0

>  <s_lp_Force_Field> (1)
S-OPLS

>  <r_lp_Energy> (1)
2.269072

>  <b_lp_Chiralities_Consistent> (1)
1

$$$$
