31369_Chloroprene
                    3D
 Schrodinger Suite 2021-3.
 10  9  0  0  1  0            999 V2000
   -0.7121    1.1498    0.0000 C   0  0  0  0  0  0
    0.0622    0.0596    0.0000 C   0  0  0  0  0  0
    1.5235    0.0130    0.0000 C   0  0  0  0  0  0
    2.2363   -1.1198    0.0000 C   0  0  0  0  0  0
    2.3837    1.5607    0.0000 Cl  0  0  0  0  0  0
   -0.2954    2.1510    0.0000 H   0  0  0  0  0  0
   -1.7930    1.0603    0.0000 H   0  0  0  0  0  0
   -0.3992   -0.9268    0.0000 H   0  0  0  0  0  0
    1.7236   -2.0764    0.0000 H   0  0  0  0  0  0
    3.3188   -1.1222    0.0000 H   0  0  0  0  0  0
  1  2  2  0  0  0
  1  6  1  0  0  0
  1  7  1  0  0  0
  2  3  1  0  0  0
  2  8  1  0  0  0
  3  4  2  0  0  0
  3  5  1  0  0  0
  4  9  1  0  0  0
  4 10  1  0  0  0
M  END
>  <i_m_Spin_multiplicity> (1)
1

>  <s_j_Task> (1)
Single Point

>  <s_j_QM_Method> (1)
DFT(b3lyp-d3)

>  <s_j_QM_Basis> (1)
cc-pvtz(-f)

>  <i_j_Number_of_canonical_orbitals> (1)
163

>  <i_j_Geometry_convergence_category> (1)
0

>  <r_j_Gas_Phase_Energy> (1)
-615.686011147271

>  <r_j_Final_Energy> (1)
-615.686011147271

>  <r_j_HOMO> (1)
-0.24950713008447

>  <r_j_LUMO> (1)
-0.0516746379946453

>  <r_j_Polarizability> (1)
61.9367260451391

>  <r_j_QM_Dipole_(debye)> (1)
1.54843035040247

>  <r_j_QM_Dipole_X_(debye)> (1)
-0.898331674305577

>  <r_j_QM_Dipole_Y_(debye)> (1)
-1.26120448500108

>  <r_j_QM_Dipole_Z_(debye)> (1)
1.09229390957537e-07

>  <r_j_Lowest_Frequency_(cm-1)> (1)
194.294224623502

>  <r_j_Highest_Frequency_(cm-1)> (1)
3212.35345043816

>  <r_j_2nd_Lowest_Frequency_(cm-1)> (1)
262.552034206237

>  <i_j_Num_Negative_Frequencies> (1)
0

>  <r_j_Zero_Point_Energy_(kcal/mol)> (1)
47.6550691992781

>  <r_j_Entropy_(cal/mol/K)_298.15K_1.00E+00atm> (1)
73.484553090774

>  <r_j_Enthalpy_(kcal/mol)_298.15K_1.00E+00atm> (1)
3.87822752530792

>  <r_j_Free_Energy_(kcal/mol)_298.15K_1.00E+00atm> (1)
-18.0311919787064

>  <r_j_Internal_Energy_(kcal/mol)_298.15K_1.00E+00atm> (1)
3.28574193648064

>  <r_j_Heat_Capacity_(cal/mol/K)_298.15K_1.00E+00atm> (1)
18.6803513756428

>  <r_j_ln(Q)_298.15K_1.00E+00atm> (1)
30.4331317397881

>  <r_j_Total_Internal_Energy_(au)_298.15K_1.00E+00atm> (1)
-615.604831796885

>  <r_j_Total_Enthalpy_(au)_298.15K_1.00E+00atm> (1)
-615.603887610993

>  <r_j_Total_Free_Energy_(au)_298.15K_1.00E+00atm> (1)
-615.638802493638

>  <r_lp_tautomer_probability> (1)
1

>  <r_epik_Ionization_Penalty> (1)
  0.0000

>  <r_epik_Ionization_Penalty_Charging> (1)
  0.0000

>  <r_epik_Ionization_Penalty_Neutral> (1)
  0.0000

>  <r_epik_State_Penalty> (1)
  0.0000

>  <r_epik_Charging_Adjusted_Penalty> (1)
0

>  <i_epik_Tot_Q> (1)
0

>  <i_epik_Tot_abs_Q> (1)
0

>  <s_lp_Force_Field> (1)
S-OPLS

>  <r_lp_Energy> (1)
-0.204383

>  <b_lp_Chiralities_Consistent> (1)
1

$$$$
