31423_Pyrene
                    3D
 Schrodinger Suite 2021-3.
 26 29  0  0  1  0            999 V2000
    1.2158   -0.6734   -0.0246 C   0  0  0  0  0  0
   -0.0070   -0.0057   -0.0086 C   0  0  0  0  0  0
   -0.0576    1.3969    0.0109 C   0  0  0  0  0  0
    1.1638    2.1348    0.0142 C   0  0  0  0  0  0
    2.4117    1.4428   -0.0023 C   0  0  0  0  0  0
    2.4131    0.0392   -0.0216 C   0  0  0  0  0  0
    3.6250    2.2132    0.0016 C   0  0  0  0  0  0
    3.5998    3.5734    0.0205 C   0  0  0  0  0  0
    2.3589    4.2983    0.0373 C   0  0  0  0  0  0
    2.3083    5.7009    0.0568 C   0  0  0  0  0  0
    1.0855    6.3686    0.0729 C   0  0  0  0  0  0
   -0.1118    5.6560    0.0697 C   0  0  0  0  0  0
   -0.1104    4.2524    0.0503 C   0  0  0  0  0  0
    1.1375    3.5604    0.0339 C   0  0  0  0  0  0
   -1.3237    3.4820    0.0464 C   0  0  0  0  0  0
   -1.2985    2.1218    0.0276 C   0  0  0  0  0  0
    1.2359   -1.7592   -0.0396 H   0  0  0  0  0  0
   -0.9366   -0.5687   -0.0109 H   0  0  0  0  0  0
    3.3629   -0.4888   -0.0342 H   0  0  0  0  0  0
    4.5732    1.6821   -0.0110 H   0  0  0  0  0  0
    4.5277    4.1394    0.0232 H   0  0  0  0  0  0
    3.2379    6.2639    0.0593 H   0  0  0  0  0  0
    1.0654    7.4544    0.0880 H   0  0  0  0  0  0
   -1.0616    6.1840    0.0823 H   0  0  0  0  0  0
   -2.2720    4.0130    0.0589 H   0  0  0  0  0  0
   -2.2264    1.5558    0.0249 H   0  0  0  0  0  0
  1  6  1  0  0  0
  1  2  2  0  0  0
  1 17  1  0  0  0
  2  3  1  0  0  0
  2 18  1  0  0  0
  3 16  1  0  0  0
  3  4  2  0  0  0
  4 14  1  0  0  0
  4  5  1  0  0  0
  5  6  2  0  0  0
  5  7  1  0  0  0
  6 19  1  0  0  0
  7  8  2  0  0  0
  7 20  1  0  0  0
  8  9  1  0  0  0
  8 21  1  0  0  0
  9 14  1  0  0  0
  9 10  2  0  0  0
 10 11  1  0  0  0
 10 22  1  0  0  0
 11 12  2  0  0  0
 11 23  1  0  0  0
 12 13  1  0  0  0
 12 24  1  0  0  0
 13 14  2  0  0  0
 13 15  1  0  0  0
 15 16  2  0  0  0
 15 25  1  0  0  0
 16 26  1  0  0  0
M  END
>  <i_m_Spin_multiplicity> (1)
1

>  <s_j_Task> (1)
Single Point

>  <s_j_QM_Method> (1)
DFT(b3lyp-d3)

>  <s_j_QM_Basis> (1)
cc-pvtz(-f)

>  <i_j_Number_of_canonical_orbitals> (1)
443

>  <i_j_Geometry_convergence_category> (1)
0

>  <r_j_Gas_Phase_Energy> (1)
-615.970489384589

>  <r_j_Final_Energy> (1)
-615.970489384589

>  <r_j_HOMO> (1)
-0.189697803444498

>  <r_j_LUMO> (1)
-0.0498815255657409

>  <r_j_Polarizability> (1)
188.623994630597

>  <r_j_QM_Dipole_(debye)> (1)
0.000287351443286731

>  <r_j_QM_Dipole_X_(debye)> (1)
-0.000249762514839491

>  <r_j_QM_Dipole_Y_(debye)> (1)
5.63486490127006e-05

>  <r_j_QM_Dipole_Z_(debye)> (1)
0.000130439134827183

>  <r_j_Lowest_Frequency_(cm-1)> (1)
114.209143885558

>  <r_j_Highest_Frequency_(cm-1)> (1)
3143.47286430269

>  <r_j_2nd_Lowest_Frequency_(cm-1)> (1)
169.682746857201

>  <i_j_Num_Negative_Frequencies> (1)
0

>  <r_j_Zero_Point_Energy_(kcal/mol)> (1)
129.494594591485

>  <r_j_Entropy_(cal/mol/K)_298.15K_1.00E+00atm> (1)
93.4886736338904

>  <r_j_Enthalpy_(kcal/mol)_298.15K_1.00E+00atm> (1)
6.74023724718947

>  <r_j_Free_Energy_(kcal/mol)_298.15K_1.00E+00atm> (1)
-21.1334107967549

>  <r_j_Internal_Energy_(kcal/mol)_298.15K_1.00E+00atm> (1)
6.14775165836219

>  <r_j_Heat_Capacity_(cal/mol/K)_298.15K_1.00E+00atm> (1)
43.9238198239609

>  <r_j_ln(Q)_298.15K_1.00E+00atm> (1)
35.6690714428767

>  <r_j_Total_Internal_Energy_(au)_298.15K_1.00E+00atm> (1)
-615.754329545201

>  <r_j_Total_Enthalpy_(au)_298.15K_1.00E+00atm> (1)
-615.753385359308

>  <r_j_Total_Free_Energy_(au)_298.15K_1.00E+00atm> (1)
-615.797804845191

>  <r_lp_tautomer_probability> (1)
1

>  <r_epik_Ionization_Penalty> (1)
  0.0000

>  <r_epik_Ionization_Penalty_Charging> (1)
  0.0000

>  <r_epik_Ionization_Penalty_Neutral> (1)
  0.0000

>  <r_epik_State_Penalty> (1)
  0.0000

>  <r_epik_Charging_Adjusted_Penalty> (1)
0

>  <i_epik_Tot_Q> (1)
0

>  <i_epik_Tot_abs_Q> (1)
0

>  <s_lp_Force_Field> (1)
S-OPLS

>  <r_lp_Energy> (1)
37.5363

>  <b_lp_Chiralities_Consistent> (1)
1

$$$$
