3240_Cholestanol
                    3D
 Schrodinger Suite 2021-3.
 76 79  0  0  1  0            999 V2000
   -2.5792    3.6459    1.4771 C   0  0  0  0  0  0
   -3.1301    2.5846    0.5133 C   0  0  0  0  0  0
   -4.5790    2.2305    0.8763 C   0  0  0  0  0  0
   -2.2567    1.3161    0.4754 C   0  0  0  0  0  0
   -0.8079    1.5445    0.0255 C   0  0  0  0  0  0
   -0.0412    0.2333   -0.1985 C   0  0  0  0  0  0
    1.4775    0.4033   -0.4313 C   0  0  0  0  0  0
    1.7620    1.2934   -1.6522 C   0  0  0  0  0  0
    2.1680   -0.9913   -0.4673 C   0  0  0  0  0  0
    1.8491   -1.8103   -1.7499 C   0  0  0  0  0  0
    3.1181   -1.7704   -2.6394 C   0  0  0  0  0  0
    4.2041   -0.9842   -1.8571 C   0  0  0  0  0  0
    3.7343   -1.0260   -0.3709 C   0  0  0  0  0  0
    4.1482   -2.3870    0.2480 C   0  0  0  0  0  0
    5.6249   -2.7526    0.0382 C   0  0  0  0  0  0
    5.9673   -2.8351   -1.4635 C   0  0  0  0  0  0
    5.6388   -1.4825   -2.1590 C   0  0  0  0  0  0
    6.7116   -0.4112   -1.8731 C   0  0  0  0  0  0
    8.1250   -0.8935   -2.2193 C   0  0  0  0  0  0
    8.4512   -2.2035   -1.4895 C   0  0  0  0  0  0
    7.4176   -3.3281   -1.8088 C   0  0  0  0  0  0
    7.8022   -4.5759   -0.9710 C   0  0  0  0  0  0
    9.2465   -5.0480   -1.2032 C   0  0  0  0  0  0
   10.2398   -3.9237   -0.9166 C   0  0  0  0  0  0
    9.9002   -2.6635   -1.7224 C   0  0  0  0  0  0
   11.5411   -4.4217   -1.2256 O   0  0  0  0  0  0
    7.4399   -3.7258   -3.3048 C   0  0  0  0  0  0
    4.2937    0.1070    0.5052 C   0  0  0  0  0  0
   -2.5117    3.2445    2.4963 H   0  0  0  0  0  0
   -3.2338    4.5238    1.5089 H   0  0  0  0  0  0
   -1.5816    3.9880    1.1860 H   0  0  0  0  0  0
   -3.1304    3.0160   -0.4996 H   0  0  0  0  0  0
   -4.6326    1.8017    1.8848 H   0  0  0  0  0  0
   -4.9984    1.4960    0.1799 H   0  0  0  0  0  0
   -5.2223    3.1170    0.8585 H   0  0  0  0  0  0
   -2.2608    0.8480    1.4712 H   0  0  0  0  0  0
   -2.7271    0.5889   -0.2018 H   0  0  0  0  0  0
   -0.8164    2.1382   -0.8976 H   0  0  0  0  0  0
   -0.2747    2.1476    0.7723 H   0  0  0  0  0  0
   -0.1863   -0.4112    0.6800 H   0  0  0  0  0  0
   -0.4937   -0.3040   -1.0433 H   0  0  0  0  0  0
    1.8592    0.9314    0.4527 H   0  0  0  0  0  0
    1.4140    0.8273   -2.5809 H   0  0  0  0  0  0
    2.8278    1.5004   -1.7640 H   0  0  0  0  0  0
    1.2583    2.2597   -1.5611 H   0  0  0  0  0  0
    1.7792   -1.5216    0.4131 H   0  0  0  0  0  0
    1.6004   -2.8430   -1.4872 H   0  0  0  0  0  0
    0.9728   -1.4187   -2.2739 H   0  0  0  0  0  0
    3.4628   -2.7860   -2.8612 H   0  0  0  0  0  0
    2.9274   -1.2952   -3.6073 H   0  0  0  0  0  0
    4.1644    0.0586   -2.1898 H   0  0  0  0  0  0
    3.9121   -2.3766    1.3200 H   0  0  0  0  0  0
    3.5382   -3.1886   -0.1883 H   0  0  0  0  0  0
    6.2744   -2.0312    0.5478 H   0  0  0  0  0  0
    5.8057   -3.7163    0.5228 H   0  0  0  0  0  0
    5.2869   -3.5928   -1.8811 H   0  0  0  0  0  0
    5.6643   -1.6520   -3.2439 H   0  0  0  0  0  0
    6.4696    0.4981   -2.4377 H   0  0  0  0  0  0
    6.6922   -0.1243   -0.8166 H   0  0  0  0  0  0
    8.2235   -1.0344   -3.3037 H   0  0  0  0  0  0
    8.8605   -0.1267   -1.9439 H   0  0  0  0  0  0
    8.3573   -1.9967   -0.4116 H   0  0  0  0  0  0
    7.6991   -4.3426    0.0946 H   0  0  0  0  0  0
    7.0981   -5.3919   -1.1785 H   0  0  0  0  0  0
    9.4768   -5.9027   -0.5578 H   0  0  0  0  0  0
    9.3999   -5.3873   -2.2334 H   0  0  0  0  0  0
   10.1736   -3.6729    0.1584 H   0  0  0  0  0  0
   10.0816   -2.8707   -2.7839 H   0  0  0  0  0  0
   10.5880   -1.8523   -1.4423 H   0  0  0  0  0  0
   12.1740   -3.7095   -1.0642 H   0  0  0  0  0  0
    8.4249   -4.0610   -3.6344 H   0  0  0  0  0  0
    7.1464   -2.9063   -3.9630 H   0  0  0  0  0  0
    6.7402   -4.5510   -3.4781 H   0  0  0  0  0  0
    5.3540   -0.0334    0.7260 H   0  0  0  0  0  0
    3.7705    0.1388    1.4681 H   0  0  0  0  0  0
    4.1875    1.0876    0.0327 H   0  0  0  0  0  0
  1  2  1  0  0  0
  1 29  1  0  0  0
  1 30  1  0  0  0
  1 31  1  0  0  0
  2  3  1  0  0  0
  2  4  1  0  0  0
  2 32  1  0  0  0
  3 33  1  0  0  0
  3 34  1  0  0  0
  3 35  1  0  0  0
  4  5  1  0  0  0
  4 36  1  0  0  0
  4 37  1  0  0  0
  5  6  1  0  0  0
  5 38  1  0  0  0
  5 39  1  0  0  0
  6  7  1  0  0  0
  6 40  1  0  0  0
  6 41  1  0  0  0
  7  8  1  0  0  0
  7  9  1  0  0  0
  7 42  1  0  0  0
  8 43  1  0  0  0
  8 44  1  0  0  0
  8 45  1  0  0  0
  9 13  1  0  0  0
  9 10  1  0  0  0
  9 46  1  0  0  0
 10 11  1  0  0  0
 10 47  1  0  0  0
 10 48  1  0  0  0
 11 12  1  0  0  0
 11 49  1  0  0  0
 11 50  1  0  0  0
 12 17  1  0  0  0
 12 13  1  0  0  0
 12 51  1  0  0  0
 13 14  1  0  0  0
 13 28  1  0  0  0
 14 15  1  0  0  0
 14 52  1  0  0  0
 14 53  1  0  0  0
 15 16  1  0  0  0
 15 54  1  0  0  0
 15 55  1  0  0  0
 16 21  1  0  0  0
 16 17  1  0  0  0
 16 56  1  0  0  0
 17 18  1  0  0  0
 17 57  1  0  0  0
 18 19  1  0  0  0
 18 58  1  0  0  0
 18 59  1  0  0  0
 19 20  1  0  0  0
 19 60  1  0  0  0
 19 61  1  0  0  0
 20 25  1  0  0  0
 20 21  1  0  0  0
 20 62  1  0  0  0
 21 22  1  0  0  0
 21 27  1  0  0  0
 22 23  1  0  0  0
 22 63  1  0  0  0
 22 64  1  0  0  0
 23 24  1  0  0  0
 23 65  1  0  0  0
 23 66  1  0  0  0
 24 25  1  0  0  0
 24 26  1  0  0  0
 24 67  1  0  0  0
 25 68  1  0  0  0
 25 69  1  0  0  0
 26 70  1  0  0  0
 27 71  1  0  0  0
 27 72  1  0  0  0
 27 73  1  0  0  0
 28 74  1  0  0  0
 28 75  1  0  0  0
 28 76  1  0  0  0
M  END
>  <i_m_Spin_multiplicity> (1)
1

>  <s_j_Task> (1)
Single Point

>  <s_j_QM_Method> (1)
DFT(b3lyp-d3)

>  <s_j_QM_Basis> (1)
cc-pvtz(-f)

>  <i_j_Number_of_canonical_orbitals> (1)
1058

>  <i_j_Geometry_convergence_category> (1)
1

>  <r_j_Gas_Phase_Energy> (1)
-1133.49596982812

>  <r_j_Final_Energy> (1)
-1133.49596982812

>  <r_j_HOMO> (1)
-0.272223524882151

>  <r_j_LUMO> (1)
0.0161381491172656

>  <r_j_Polarizability> (1)
311.33390147959

>  <r_j_QM_Dipole_(debye)> (1)
1.58263561778709

>  <r_j_QM_Dipole_X_(debye)> (1)
-0.539532572165934

>  <r_j_QM_Dipole_Y_(debye)> (1)
1.43381698587075

>  <r_j_QM_Dipole_Z_(debye)> (1)
0.397251750517046

>  <r_j_Lowest_Frequency_(cm-1)> (1)
35.4060016473565

>  <r_j_Highest_Frequency_(cm-1)> (1)
3755.32074022718

>  <r_j_2nd_Lowest_Frequency_(cm-1)> (1)
41.0285493737579

>  <i_j_Num_Negative_Frequencies> (1)
0

>  <r_j_Zero_Point_Energy_(kcal/mol)> (1)
444.622485722252

>  <r_j_Entropy_(cal/mol/K)_298.15K_1.00E+00atm> (1)
169.56975774247

>  <r_j_Enthalpy_(kcal/mol)_298.15K_1.00E+00atm> (1)
17.83760731565

>  <r_j_Free_Energy_(kcal/mol)_298.15K_1.00E+00atm> (1)
-32.7196159552674

>  <r_j_Internal_Energy_(kcal/mol)_298.15K_1.00E+00atm> (1)
17.2451217268227

>  <r_j_Heat_Capacity_(cal/mol/K)_298.15K_1.00E+00atm> (1)
117.50246671837

>  <r_j_ln(Q)_298.15K_1.00E+00atm> (1)
55.2243237173589

>  <r_j_Total_Internal_Energy_(au)_298.15K_1.00E+00atm> (1)
-1132.75993694012

>  <r_j_Total_Enthalpy_(au)_298.15K_1.00E+00atm> (1)
-1132.75899275423

>  <r_j_Total_Free_Energy_(au)_298.15K_1.00E+00atm> (1)
-1132.83956081844

>  <r_lp_tautomer_probability> (1)
1

>  <r_epik_Ionization_Penalty> (1)
  0.0000

>  <r_epik_Ionization_Penalty_Charging> (1)
  0.0000

>  <r_epik_Ionization_Penalty_Neutral> (1)
  0.0000

>  <r_epik_State_Penalty> (1)
  0.0000

>  <r_epik_Charging_Adjusted_Penalty> (1)
0

>  <i_epik_Tot_Q> (1)
0

>  <i_epik_Tot_abs_Q> (1)
0

>  <s_lp_Force_Field> (1)
S-OPLS

>  <r_lp_Energy> (1)
53.989082

>  <b_lp_Chiralities_Consistent> (1)
1

$$$$
