32611_Tripropylene Glycol
                    3D
 Schrodinger Suite 2021-3.
 33 32  0  0  1  0            999 V2000
   -1.8544    2.9558    0.4679 C   0  0  0  0  0  0
   -1.5983    1.4578    0.3792 C   0  0  0  0  0  0
   -1.6668    0.7883    1.7662 C   0  0  0  0  0  0
   -0.6111    1.2024    2.6067 O   0  0  0  0  0  0
   -0.2894    1.3344   -0.1943 O   0  0  0  0  0  0
    0.1870    0.0344   -0.4921 C   0  0  0  0  0  0
    1.6557   -0.0452   -0.0908 C   0  0  0  0  0  0
    2.3068   -1.3518   -0.5363 C   0  0  0  0  0  0
    1.7014    0.0695    1.3411 O   0  0  0  0  0  0
    2.9007    0.6165    1.8952 C   0  0  0  0  0  0
    2.6998    2.0521    2.4069 C   0  0  0  0  0  0
    2.3632    3.0338    1.2966 C   0  0  0  0  0  0
    3.9192    2.4894    3.0130 O   0  0  0  0  0  0
   -2.8828    3.1518    0.7863 H   0  0  0  0  0  0
   -1.6877    3.4295   -0.5026 H   0  0  0  0  0  0
   -1.1720    3.3930    1.2012 H   0  0  0  0  0  0
   -2.3431    0.9821   -0.2820 H   0  0  0  0  0  0
   -2.6110    1.0733    2.2448 H   0  0  0  0  0  0
   -1.6887   -0.3091    1.6604 H   0  0  0  0  0  0
    0.2038    0.8592    2.1957 H   0  0  0  0  0  0
   -0.3648   -0.7469    0.0463 H   0  0  0  0  0  0
    0.0880   -0.1705   -1.5689 H   0  0  0  0  0  0
    2.1719    0.8137   -0.5405 H   0  0  0  0  0  0
    2.2897   -1.4483   -1.6268 H   0  0  0  0  0  0
    1.7800   -2.2052   -0.0978 H   0  0  0  0  0  0
    3.3496   -1.3929   -0.2091 H   0  0  0  0  0  0
    3.2011   -0.0317    2.7290 H   0  0  0  0  0  0
    3.7180    0.6110    1.1625 H   0  0  0  0  0  0
    1.8772    2.0499    3.1386 H   0  0  0  0  0  0
    1.4341    2.7438    0.8008 H   0  0  0  0  0  0
    3.1742    3.0629    0.5601 H   0  0  0  0  0  0
    2.2475    4.0376    1.7140 H   0  0  0  0  0  0
    4.0327    2.0058    3.8418 H   0  0  0  0  0  0
  1  2  1  0  0  0
  1 14  1  0  0  0
  1 15  1  0  0  0
  1 16  1  0  0  0
  2  3  1  0  0  0
  2  5  1  0  0  0
  2 17  1  0  0  0
  3  4  1  0  0  0
  3 18  1  0  0  0
  3 19  1  0  0  0
  4 20  1  0  0  0
  5  6  1  0  0  0
  6  7  1  0  0  0
  6 21  1  0  0  0
  6 22  1  0  0  0
  7  8  1  0  0  0
  7  9  1  0  0  0
  7 23  1  0  0  0
  8 24  1  0  0  0
  8 25  1  0  0  0
  8 26  1  0  0  0
  9 10  1  0  0  0
 10 11  1  0  0  0
 10 27  1  0  0  0
 10 28  1  0  0  0
 11 12  1  0  0  0
 11 13  1  0  0  0
 11 29  1  0  0  0
 12 30  1  0  0  0
 12 31  1  0  0  0
 12 32  1  0  0  0
 13 33  1  0  0  0
M  END
>  <i_m_Spin_multiplicity> (1)
1

>  <s_j_Task> (1)
Single Point

>  <s_j_QM_Method> (1)
DFT(b3lyp-d3)

>  <s_j_QM_Basis> (1)
cc-pvtz(-f)

>  <i_j_Number_of_canonical_orbitals> (1)
479

>  <i_j_Geometry_convergence_category> (1)
2

>  <r_j_Gas_Phase_Energy> (1)
-656.141903231986

>  <r_j_Final_Energy> (1)
-656.141903231986

>  <r_j_HOMO> (1)
-0.253018758568858

>  <r_j_LUMO> (1)
0.0176716173568339

>  <r_j_Polarizability> (1)
126.717032388709

>  <r_j_QM_Dipole_(debye)> (1)
2.81523058698489

>  <r_j_QM_Dipole_X_(debye)> (1)
-0.0723054804246967

>  <r_j_QM_Dipole_Y_(debye)> (1)
-2.4186477912264

>  <r_j_QM_Dipole_Z_(debye)> (1)
-1.43890167745802

>  <r_j_Lowest_Frequency_(cm-1)> (1)
54.36031803548

>  <r_j_Highest_Frequency_(cm-1)> (1)
3759.83690988184

>  <r_j_2nd_Lowest_Frequency_(cm-1)> (1)
81.2286752487809

>  <i_j_Num_Negative_Frequencies> (1)
0

>  <r_j_Zero_Point_Energy_(kcal/mol)> (1)
183.917998708994

>  <r_j_Entropy_(cal/mol/K)_298.15K_1.00E+00atm> (1)
118.142802567339

>  <r_j_Enthalpy_(kcal/mol)_298.15K_1.00E+00atm> (1)
9.94741401224549

>  <r_j_Free_Energy_(kcal/mol)_298.15K_1.00E+00atm> (1)
-25.2768625732065

>  <r_j_Internal_Energy_(kcal/mol)_298.15K_1.00E+00atm> (1)
9.35492842341821

>  <r_j_Heat_Capacity_(cal/mol/K)_298.15K_1.00E+00atm> (1)
57.4538995655477

>  <r_j_ln(Q)_298.15K_1.00E+00atm> (1)
42.662409094604

>  <r_j_Total_Internal_Energy_(au)_298.15K_1.00E+00atm> (1)
-655.833903215456

>  <r_j_Total_Enthalpy_(au)_298.15K_1.00E+00atm> (1)
-655.832959029564

>  <r_j_Total_Free_Energy_(au)_298.15K_1.00E+00atm> (1)
-655.889092487734

>  <r_lp_tautomer_probability> (1)
1

>  <r_epik_Ionization_Penalty> (1)
  0.0000

>  <r_epik_Ionization_Penalty_Charging> (1)
  0.0000

>  <r_epik_Ionization_Penalty_Neutral> (1)
  0.0000

>  <r_epik_State_Penalty> (1)
  0.0000

>  <r_epik_Charging_Adjusted_Penalty> (1)
0

>  <i_epik_Tot_Q> (1)
0

>  <i_epik_Tot_abs_Q> (1)
0

>  <s_lp_Force_Field> (1)
S-OPLS

>  <r_lp_Energy> (1)
1.625234

>  <b_lp_Chiralities_Consistent> (1)
1

$$$$
