32737_3,4-dimethyl-2-pentene
                    3D
 Schrodinger Suite 2021-3.
 21 20  0  0  1  0            999 V2000
   -2.2692    1.1696   -0.0011 C   0  0  0  0  0  0
   -0.7621    1.1261   -0.0017 C   0  0  0  0  0  0
   -0.0341    0.0005   -0.0002 C   0  0  0  0  0  0
   -0.7165   -1.3524    0.0026 C   0  0  0  0  0  0
    1.4965    0.0426   -0.0007 C   0  0  0  0  0  0
    2.0538    0.7151    1.2675 C   0  0  0  0  0  0
    2.0533    0.7195   -1.2668 C   0  0  0  0  0  0
   -2.6427    2.1970   -0.0027 H   0  0  0  0  0  0
   -2.6904    0.6659    0.8793 H   0  0  0  0  0  0
   -2.6912    0.6629   -0.8795 H   0  0  0  0  0  0
   -0.2461    2.0848   -0.0035 H   0  0  0  0  0  0
    0.0032   -2.1754    0.0044 H   0  0  0  0  0  0
   -1.3629   -1.4789   -0.8755 H   0  0  0  0  0  0
   -1.3631   -1.4753    0.8811 H   0  0  0  0  0  0
    1.8557   -0.9946   -0.0027 H   0  0  0  0  0  0
    1.6836    0.2230    2.1724 H   0  0  0  0  0  0
    1.7523    1.7670    1.3150 H   0  0  0  0  0  0
    3.1491    0.6789    1.2810 H   0  0  0  0  0  0
    1.6825    0.2308   -2.1733 H   0  0  0  0  0  0
    3.1487    0.6829   -1.2809 H   0  0  0  0  0  0
    1.7525    1.7717   -1.3105 H   0  0  0  0  0  0
  1  2  1  0  0  0
  1  8  1  0  0  0
  1  9  1  0  0  0
  1 10  1  0  0  0
  2  3  2  0  0  0
  2 11  1  0  0  0
  3  4  1  0  0  0
  3  5  1  0  0  0
  4 12  1  0  0  0
  4 13  1  0  0  0
  4 14  1  0  0  0
  5  6  1  0  0  0
  5  7  1  0  0  0
  5 15  1  0  0  0
  6 16  1  0  0  0
  6 17  1  0  0  0
  6 18  1  0  0  0
  7 19  1  0  0  0
  7 20  1  0  0  0
  7 21  1  0  0  0
M  END
>  <i_m_Spin_multiplicity> (1)
1

>  <s_j_Task> (1)
Single Point

>  <s_j_QM_Method> (1)
DFT(b3lyp-d3)

>  <s_j_QM_Basis> (1)
cc-pvtz(-f)

>  <i_j_Number_of_canonical_orbitals> (1)
284

>  <i_j_Geometry_convergence_category> (1)
3

>  <r_j_Gas_Phase_Energy> (1)
-275.274181115792

>  <r_j_Final_Energy> (1)
-275.274181115792

>  <r_j_HOMO> (1)
-0.228407501467518

>  <r_j_LUMO> (1)
0.0144633650303629

>  <r_j_Polarizability> (1)
85.3472892198441

>  <r_j_QM_Dipole_(debye)> (1)
0.29680574346682

>  <r_j_QM_Dipole_X_(debye)> (1)
-0.0947141545413356

>  <r_j_QM_Dipole_Y_(debye)> (1)
-0.281287178885854

>  <r_j_QM_Dipole_Z_(debye)> (1)
0.000633465744434408

>  <r_j_Lowest_Frequency_(cm-1)> (1)
43.8876457708258

>  <r_j_Highest_Frequency_(cm-1)> (1)
3097.31252212612

>  <r_j_2nd_Lowest_Frequency_(cm-1)> (1)
154.734996730215

>  <i_j_Num_Negative_Frequencies> (1)
0

>  <r_j_Zero_Point_Energy_(kcal/mol)> (1)
120.481025015607

>  <r_j_Entropy_(cal/mol/K)_298.15K_1.00E+00atm> (1)
89.7376543801999

>  <r_j_Enthalpy_(kcal/mol)_298.15K_1.00E+00atm> (1)
6.24874079491556

>  <r_j_Free_Energy_(kcal/mol)_298.15K_1.00E+00atm> (1)
-20.506540858541

>  <r_j_Internal_Energy_(kcal/mol)_298.15K_1.00E+00atm> (1)
5.65625520608828

>  <r_j_Heat_Capacity_(cal/mol/K)_298.15K_1.00E+00atm> (1)
33.4657352361122

>  <r_j_ln(Q)_298.15K_1.00E+00atm> (1)
34.6110373741415

>  <r_j_Total_Internal_Energy_(au)_298.15K_1.00E+00atm> (1)
-275.073168563389

>  <r_j_Total_Enthalpy_(au)_298.15K_1.00E+00atm> (1)
-275.072224377497

>  <r_j_Total_Free_Energy_(au)_298.15K_1.00E+00atm> (1)
-275.11486163308

>  <r_lp_tautomer_probability> (1)
1

>  <r_epik_Ionization_Penalty> (1)
  0.0000

>  <r_epik_Ionization_Penalty_Charging> (1)
  0.0000

>  <r_epik_Ionization_Penalty_Neutral> (1)
  0.0000

>  <r_epik_State_Penalty> (1)
  0.0000

>  <r_epik_Charging_Adjusted_Penalty> (1)
0

>  <i_epik_Tot_Q> (1)
0

>  <i_epik_Tot_abs_Q> (1)
0

>  <s_lp_Force_Field> (1)
S-OPLS

>  <r_lp_Energy> (1)
4.6389

>  <b_lp_Chiralities_Consistent> (1)
1

$$$$
