32934_Tridecene
                    3D
 Schrodinger Suite 2021-3.
 39 38  0  0  1  0            999 V2000
   -3.0861    5.1897   -1.1485 C   0  0  0  0  0  0
   -2.3964    3.8233   -1.2084 C   0  0  0  0  0  0
   -2.6692    2.9655    0.0348 C   0  0  0  0  0  0
   -2.0676    1.5529   -0.0214 C   0  0  0  0  0  0
   -0.5339    1.5143   -0.0378 C   0  0  0  0  0  0
    0.0328    0.0900   -0.0397 C   0  0  0  0  0  0
    1.5649    0.0446   -0.0525 C   0  0  0  0  0  0
    2.1317   -1.3792   -0.0776 C   0  0  0  0  0  0
    3.6635   -1.4238   -0.0758 C   0  0  0  0  0  0
    4.2276   -2.8561   -0.1216 C   0  0  0  0  0  0
    5.7292   -2.8923   -0.0564 C   0  0  0  0  0  0
    6.5355   -3.3482   -1.0172 C   0  0  0  0  0  0
    8.0361   -3.3629   -0.9571 C   0  0  0  0  0  0
   -2.8787    5.7856   -2.0433 H   0  0  0  0  0  0
   -2.7460    5.7643   -0.2792 H   0  0  0  0  0  0
   -4.1736    5.0798   -1.0647 H   0  0  0  0  0  0
   -2.7336    3.2784   -2.1011 H   0  0  0  0  0  0
   -1.3162    3.9694   -1.3312 H   0  0  0  0  0  0
   -2.2892    3.4882    0.9247 H   0  0  0  0  0  0
   -3.7560    2.8842    0.1734 H   0  0  0  0  0  0
   -2.4250    0.9785    0.8441 H   0  0  0  0  0  0
   -2.4518    1.0313   -0.9100 H   0  0  0  0  0  0
   -0.1545    2.0483   -0.9186 H   0  0  0  0  0  0
   -0.1493    2.0593    0.8366 H   0  0  0  0  0  0
   -0.3398   -0.4527    0.8409 H   0  0  0  0  0  0
   -0.3540   -0.4525   -0.9144 H   0  0  0  0  0  0
    1.9380    0.5988   -0.9256 H   0  0  0  0  0  0
    1.9515    0.5750    0.8295 H   0  0  0  0  0  0
    1.7509   -1.9385    0.7891 H   0  0  0  0  0  0
    1.7532   -1.9048   -0.9660 H   0  0  0  0  0  0
    4.0526   -0.8601   -0.9341 H   0  0  0  0  0  0
    4.0425   -0.9126    0.8203 H   0  0  0  0  0  0
    3.8080   -3.4233    0.7229 H   0  0  0  0  0  0
    3.8797   -3.3571   -1.0344 H   0  0  0  0  0  0
    6.1749   -2.4892    0.8556 H   0  0  0  0  0  0
    6.0878   -3.7466   -1.9296 H   0  0  0  0  0  0
    8.4726   -2.7785   -1.7775 H   0  0  0  0  0  0
    8.4293   -4.3829   -1.0567 H   0  0  0  0  0  0
    8.4060   -2.9488   -0.0137 H   0  0  0  0  0  0
  1  2  1  0  0  0
  1 14  1  0  0  0
  1 15  1  0  0  0
  1 16  1  0  0  0
  2  3  1  0  0  0
  2 17  1  0  0  0
  2 18  1  0  0  0
  3  4  1  0  0  0
  3 19  1  0  0  0
  3 20  1  0  0  0
  4  5  1  0  0  0
  4 21  1  0  0  0
  4 22  1  0  0  0
  5  6  1  0  0  0
  5 23  1  0  0  0
  5 24  1  0  0  0
  6  7  1  0  0  0
  6 25  1  0  0  0
  6 26  1  0  0  0
  7  8  1  0  0  0
  7 27  1  0  0  0
  7 28  1  0  0  0
  8  9  1  0  0  0
  8 29  1  0  0  0
  8 30  1  0  0  0
  9 10  1  0  0  0
  9 31  1  0  0  0
  9 32  1  0  0  0
 10 11  1  0  0  0
 10 33  1  0  0  0
 10 34  1  0  0  0
 11 12  2  0  0  0
 11 35  1  0  0  0
 12 13  1  0  0  0
 12 36  1  0  0  0
 13 37  1  0  0  0
 13 38  1  0  0  0
 13 39  1  0  0  0
M  END
>  <i_m_Spin_multiplicity> (1)
1

>  <s_j_Task> (1)
Single Point

>  <s_j_QM_Method> (1)
DFT(b3lyp-d3)

>  <s_j_QM_Basis> (1)
cc-pvtz(-f)

>  <i_j_Number_of_canonical_orbitals> (1)
529

>  <i_j_Geometry_convergence_category> (1)
3

>  <r_j_Gas_Phase_Energy> (1)
-511.253595029961

>  <r_j_Final_Energy> (1)
-511.253595029961

>  <r_j_HOMO> (1)
-0.255855086762396

>  <r_j_LUMO> (1)
0.00556266276281138

>  <r_j_Polarizability> (1)
163.733627732231

>  <r_j_QM_Dipole_(debye)> (1)
0.0510813207795441

>  <r_j_QM_Dipole_X_(debye)> (1)
-0.00106920768653057

>  <r_j_QM_Dipole_Y_(debye)> (1)
0.0165878560122833

>  <r_j_QM_Dipole_Z_(debye)> (1)
-0.0483011507152936

>  <r_j_Lowest_Frequency_(cm-1)> (1)
42.774264133109

>  <r_j_Highest_Frequency_(cm-1)> (1)
3075.37816034886

>  <r_j_2nd_Lowest_Frequency_(cm-1)> (1)
67.1451401279935

>  <i_j_Num_Negative_Frequencies> (1)
0

>  <r_j_Zero_Point_Energy_(kcal/mol)> (1)
228.498076056256

>  <r_j_Entropy_(cal/mol/K)_298.15K_1.00E+00atm> (1)
125.092351007522

>  <r_j_Enthalpy_(kcal/mol)_298.15K_1.00E+00atm> (1)
10.6517517674678

>  <r_j_Free_Energy_(kcal/mol)_298.15K_1.00E+00atm> (1)
-26.6445326854248

>  <r_j_Internal_Energy_(kcal/mol)_298.15K_1.00E+00atm> (1)
10.0592661786405

>  <r_j_Heat_Capacity_(cal/mol/K)_298.15K_1.00E+00atm> (1)
60.4882243861184

>  <r_j_ln(Q)_298.15K_1.00E+00atm> (1)
44.970769226916

>  <r_j_Total_Internal_Energy_(au)_298.15K_1.00E+00atm> (1)
-510.873429703954

>  <r_j_Total_Enthalpy_(au)_298.15K_1.00E+00atm> (1)
-510.872485518062

>  <r_j_Total_Free_Energy_(au)_298.15K_1.00E+00atm> (1)
-510.93192093097

>  <r_lp_tautomer_probability> (1)
1

>  <r_epik_Ionization_Penalty> (1)
  0.0000

>  <r_epik_Ionization_Penalty_Charging> (1)
  0.0000

>  <r_epik_Ionization_Penalty_Neutral> (1)
  0.0000

>  <r_epik_State_Penalty> (1)
  0.0000

>  <r_epik_Charging_Adjusted_Penalty> (1)
0

>  <i_epik_Tot_Q> (1)
0

>  <i_epik_Tot_abs_Q> (1)
0

>  <s_lp_Force_Field> (1)
S-OPLS

>  <r_lp_Energy> (1)
0.964647

>  <b_lp_Chiralities_Consistent> (1)
1

$$$$
