33047_Toluene, 3,4-diethyl-
                    3D
 Schrodinger Suite 2021-3.
 27 27  0  0  1  0            999 V2000
   -0.5825    1.4667   -0.0577 C   0  0  0  0  0  0
   -0.0343    0.0283   -0.0678 C   0  0  0  0  0  0
    1.4809   -0.0127   -0.0116 C   0  0  0  0  0  0
    2.1949    0.0133    1.2055 C   0  0  0  0  0  0
    3.5930    0.0164    1.1722 C   0  0  0  0  0  0
    4.3193    0.0026   -0.0240 C   0  0  0  0  0  0
    3.6002   -0.0131   -1.2210 C   0  0  0  0  0  0
    2.2063   -0.0209   -1.2071 C   0  0  0  0  0  0
    5.8302    0.0066   -0.0066 C   0  0  0  0  0  0
    1.4953   -0.0246    2.5513 C   0  0  0  0  0  0
    1.2084   -1.4628    3.0189 C   0  0  0  0  0  0
   -1.6766    1.4750   -0.1072 H   0  0  0  0  0  0
   -0.1964    2.0307   -0.9128 H   0  0  0  0  0  0
   -0.2785    1.9989    0.8495 H   0  0  0  0  0  0
   -0.4706   -0.5341    0.7641 H   0  0  0  0  0  0
   -0.3713   -0.4747   -0.9818 H   0  0  0  0  0  0
    4.1362    0.0303    2.1161 H   0  0  0  0  0  0
    4.1307   -0.0228   -2.1700 H   0  0  0  0  0  0
    1.6650   -0.0348   -2.1507 H   0  0  0  0  0  0
    6.2436   -0.0025   -1.0192 H   0  0  0  0  0  0
    6.2246   -0.8685    0.5229 H   0  0  0  0  0  0
    6.2205    0.8938    0.5057 H   0  0  0  0  0  0
    2.1253    0.4740    3.2971 H   0  0  0  0  0  0
    0.5592    0.5421    2.5187 H   0  0  0  0  0  0
    0.7080   -1.4710    3.9932 H   0  0  0  0  0  0
    2.1401   -2.0309    3.1072 H   0  0  0  0  0  0
    0.5697   -1.9907    2.3035 H   0  0  0  0  0  0
  1  2  1  0  0  0
  1 12  1  0  0  0
  1 13  1  0  0  0
  1 14  1  0  0  0
  2  3  1  0  0  0
  2 15  1  0  0  0
  2 16  1  0  0  0
  3  8  1  0  0  0
  3  4  2  0  0  0
  4  5  1  0  0  0
  4 10  1  0  0  0
  5  6  2  0  0  0
  5 17  1  0  0  0
  6  7  1  0  0  0
  6  9  1  0  0  0
  7  8  2  0  0  0
  7 18  1  0  0  0
  8 19  1  0  0  0
  9 20  1  0  0  0
  9 21  1  0  0  0
  9 22  1  0  0  0
 10 11  1  0  0  0
 10 23  1  0  0  0
 10 24  1  0  0  0
 11 25  1  0  0  0
 11 26  1  0  0  0
 11 27  1  0  0  0
M  END
>  <i_m_Spin_multiplicity> (1)
1

>  <s_j_Task> (1)
Single Point

>  <s_j_QM_Method> (1)
DFT(b3lyp-d3)

>  <s_j_QM_Basis> (1)
cc-pvtz(-f)

>  <i_j_Number_of_canonical_orbitals> (1)
389

>  <i_j_Geometry_convergence_category> (1)
3

>  <r_j_Gas_Phase_Energy> (1)
-428.985402443918

>  <r_j_Final_Energy> (1)
-428.985402443918

>  <r_j_HOMO> (1)
-0.231959407553721

>  <r_j_LUMO> (1)
-0.0104705583433143

>  <r_j_Polarizability> (1)
129.031975932209

>  <r_j_QM_Dipole_(debye)> (1)
0.31587358429742

>  <r_j_QM_Dipole_X_(debye)> (1)
-0.116679634949133

>  <r_j_QM_Dipole_Y_(debye)> (1)
-0.00416528739642955

>  <r_j_QM_Dipole_Z_(debye)> (1)
0.293504062026305

>  <r_j_Lowest_Frequency_(cm-1)> (1)
102.763794978834

>  <r_j_Highest_Frequency_(cm-1)> (1)
3124.44678895411

>  <r_j_2nd_Lowest_Frequency_(cm-1)> (1)
112.542660005647

>  <i_j_Num_Negative_Frequencies> (1)
0

>  <r_j_Zero_Point_Energy_(kcal/mol)> (1)
150.682950458653

>  <r_j_Entropy_(cal/mol/K)_298.15K_1.00E+00atm> (1)
101.580282124555

>  <r_j_Enthalpy_(kcal/mol)_298.15K_1.00E+00atm> (1)
7.61661664538347

>  <r_j_Free_Energy_(kcal/mol)_298.15K_1.00E+00atm> (1)
-22.6695444700526

>  <r_j_Internal_Energy_(kcal/mol)_298.15K_1.00E+00atm> (1)
7.02413105655619

>  <r_j_Heat_Capacity_(cal/mol/K)_298.15K_1.00E+00atm> (1)
43.8011032378057

>  <r_j_ln(Q)_298.15K_1.00E+00atm> (1)
38.2617651763027

>  <r_j_Total_Internal_Energy_(au)_298.15K_1.00E+00atm> (1)
-428.734080210462

>  <r_j_Total_Enthalpy_(au)_298.15K_1.00E+00atm> (1)
-428.73313602457

>  <r_j_Total_Free_Energy_(au)_298.15K_1.00E+00atm> (1)
-428.781400094777

>  <r_lp_tautomer_probability> (1)
1

>  <r_epik_Ionization_Penalty> (1)
  0.0000

>  <r_epik_Ionization_Penalty_Charging> (1)
  0.0000

>  <r_epik_Ionization_Penalty_Neutral> (1)
  0.0000

>  <r_epik_State_Penalty> (1)
  0.0000

>  <r_epik_Charging_Adjusted_Penalty> (1)
0

>  <i_epik_Tot_Q> (1)
0

>  <i_epik_Tot_abs_Q> (1)
0

>  <s_lp_Force_Field> (1)
S-OPLS

>  <r_lp_Energy> (1)
9.425608

>  <b_lp_Chiralities_Consistent> (1)
1

$$$$
