3314_2-methoxy-4-(2-propenyl)phenol
                    3D
 Schrodinger Suite 2021-3.
 24 24  0  0  1  0            999 V2000
   -0.6193    1.1293   -0.3737 C   0  0  0  0  0  0
    0.0680   -0.0755   -0.0799 O   0  0  0  0  0  0
    1.4301   -0.0352   -0.0292 C   0  0  0  0  0  0
    2.0645   -1.2679    0.2497 C   0  0  0  0  0  0
    3.4520   -1.3182    0.3121 C   0  0  0  0  0  0
    4.2232   -0.1684    0.1070 C   0  0  0  0  0  0
    3.6111    1.0519   -0.1601 C   0  0  0  0  0  0
    2.2080    1.1025   -0.2303 C   0  0  0  0  0  0
    4.4223    2.3239   -0.3564 C   0  0  0  0  0  0
    4.0489    3.0732   -1.6096 C   0  0  0  0  0  0
    3.5646    4.3150   -1.6433 C   0  0  0  0  0  0
    1.2585   -2.3555    0.4391 O   0  0  0  0  0  0
   -1.6811    0.8775   -0.3707 H   0  0  0  0  0  0
   -0.3438    1.5248   -1.3607 H   0  0  0  0  0  0
   -0.4294    1.9020    0.3837 H   0  0  0  0  0  0
    3.9368   -2.2697    0.5215 H   0  0  0  0  0  0
    5.3062   -0.2345    0.1630 H   0  0  0  0  0  0
    1.7361    2.0513   -0.4571 H   0  0  0  0  0  0
    4.2956    2.9860    0.5108 H   0  0  0  0  0  0
    5.4875    2.0599   -0.3924 H   0  0  0  0  0  0
    4.1748    2.5208   -2.5410 H   0  0  0  0  0  0
    3.4174    4.8928   -0.7336 H   0  0  0  0  0  0
    3.3058    4.8030   -2.5784 H   0  0  0  0  0  0
    1.8175   -3.1222    0.6197 H   0  0  0  0  0  0
  1  2  1  0  0  0
  1 13  1  0  0  0
  1 14  1  0  0  0
  1 15  1  0  0  0
  2  3  1  0  0  0
  3  8  1  0  0  0
  3  4  2  0  0  0
  4  5  1  0  0  0
  4 12  1  0  0  0
  5  6  2  0  0  0
  5 16  1  0  0  0
  6  7  1  0  0  0
  6 17  1  0  0  0
  7  8  2  0  0  0
  7  9  1  0  0  0
  8 18  1  0  0  0
  9 10  1  0  0  0
  9 19  1  0  0  0
  9 20  1  0  0  0
 10 11  2  0  0  0
 10 21  1  0  0  0
 11 22  1  0  0  0
 11 23  1  0  0  0
 12 24  1  0  0  0
M  END
>  <i_m_Spin_multiplicity> (1)
1

>  <s_j_Task> (1)
Single Point

>  <s_j_QM_Method> (1)
DFT(b3lyp-d3)

>  <s_j_QM_Basis> (1)
cc-pvtz(-f)

>  <i_j_Number_of_canonical_orbitals> (1)
377

>  <i_j_Geometry_convergence_category> (1)
3

>  <r_j_Gas_Phase_Energy> (1)
-538.895281941782

>  <r_j_Final_Energy> (1)
-538.895281941782

>  <r_j_HOMO> (1)
-0.206627332012786

>  <r_j_LUMO> (1)
-0.00378981041997051

>  <r_j_Polarizability> (1)
125.436722843481

>  <r_j_QM_Dipole_(debye)> (1)
0.602142384160424

>  <r_j_QM_Dipole_X_(debye)> (1)
0.562323742075998

>  <r_j_QM_Dipole_Y_(debye)> (1)
0.215312520085954

>  <r_j_QM_Dipole_Z_(debye)> (1)
0.00282464055784625

>  <r_j_Lowest_Frequency_(cm-1)> (1)
72.5462736501517

>  <r_j_Highest_Frequency_(cm-1)> (1)
3773.43870412105

>  <r_j_2nd_Lowest_Frequency_(cm-1)> (1)
93.363579821077

>  <i_j_Num_Negative_Frequencies> (1)
0

>  <r_j_Zero_Point_Energy_(kcal/mol)> (1)
124.120272469451

>  <r_j_Entropy_(cal/mol/K)_298.15K_1.00E+00atm> (1)
102.936450198621

>  <r_j_Enthalpy_(kcal/mol)_298.15K_1.00E+00atm> (1)
7.67341485026478

>  <r_j_Free_Energy_(kcal/mol)_298.15K_1.00E+00atm> (1)
-23.017087776454

>  <r_j_Internal_Energy_(kcal/mol)_298.15K_1.00E+00atm> (1)
7.08092926143751

>  <r_j_Heat_Capacity_(cal/mol/K)_298.15K_1.00E+00atm> (1)
43.9958164452281

>  <r_j_ln(Q)_298.15K_1.00E+00atm> (1)
38.8483504248812

>  <r_j_Total_Internal_Energy_(au)_298.15K_1.00E+00atm> (1)
-538.68619951673

>  <r_j_Total_Enthalpy_(au)_298.15K_1.00E+00atm> (1)
-538.685255330838

>  <r_j_Total_Free_Energy_(au)_298.15K_1.00E+00atm> (1)
-538.734163760262

>  <r_lp_tautomer_probability> (1)
0.999999999999776

>  <r_epik_Ionization_Penalty> (1)
  0.0005

>  <r_epik_Ionization_Penalty_Charging> (1)
  0.0000

>  <r_epik_Ionization_Penalty_Neutral> (1)
  0.0005

>  <r_epik_State_Penalty> (1)
  0.0003

>  <r_epik_Charging_Adjusted_Penalty> (1)
0.000289490938951469

>  <i_epik_Tot_Q> (1)
0

>  <i_epik_Tot_abs_Q> (1)
0

>  <s_lp_Force_Field> (1)
S-OPLS

>  <r_lp_Energy> (1)
15.063327

>  <b_lp_Chiralities_Consistent> (1)
1

$$$$
