33528_2-n-Octyl-4-isothiazolin-3-one
                    3D
 Schrodinger Suite 2021-3.
 33 33  0  0  1  0            999 V2000
   -2.6325    3.0306   -0.1921 C   0  0  0  0  0  0
   -2.1235    1.5876   -0.1267 C   0  0  0  0  0  0
   -0.5964    1.4945   -0.0264 C   0  0  0  0  0  0
   -0.0777    0.0537    0.0385 C   0  0  0  0  0  0
    1.4508   -0.0315    0.1399 C   0  0  0  0  0  0
    2.0084   -1.4630    0.1236 C   0  0  0  0  0  0
    1.5869   -2.3094    1.3304 C   0  0  0  0  0  0
    2.2242   -3.7019    1.3066 C   0  0  0  0  0  0
    1.8199   -4.5319    2.4375 N   0  0  0  0  0  0
    0.6182   -5.2508    2.4277 C   0  0  0  0  0  0
   -0.0710   -5.3779    1.4212 O   0  0  0  0  0  0
    0.3857   -5.7704    3.7815 C   0  0  0  0  0  0
    1.3058   -5.3723    4.6814 C   0  0  0  0  0  0
    2.5517   -4.3667    3.9884 S   0  0  0  0  0  0
   -3.7243    3.0701   -0.2644 H   0  0  0  0  0  0
   -2.2210    3.5542   -1.0628 H   0  0  0  0  0  0
   -2.3363    3.5937    0.7006 H   0  0  0  0  0  0
   -2.5740    1.0766    0.7352 H   0  0  0  0  0  0
   -2.4610    1.0370   -1.0153 H   0  0  0  0  0  0
   -0.1441    2.0069   -0.8879 H   0  0  0  0  0  0
   -0.2572    2.0442    0.8637 H   0  0  0  0  0  0
   -0.5396   -0.4528    0.8960 H   0  0  0  0  0  0
   -0.4119   -0.4954   -0.8536 H   0  0  0  0  0  0
    1.8931    0.5294   -0.6943 H   0  0  0  0  0  0
    1.7830    0.4760    1.0570 H   0  0  0  0  0  0
    1.6895   -1.9666   -0.7998 H   0  0  0  0  0  0
    3.1057   -1.4178    0.0844 H   0  0  0  0  0  0
    1.8657   -1.7978    2.2617 H   0  0  0  0  0  0
    0.5002   -2.4423    1.3503 H   0  0  0  0  0  0
    1.9013   -4.2490    0.4160 H   0  0  0  0  0  0
    3.3180   -3.6411    1.2872 H   0  0  0  0  0  0
   -0.4703   -6.3949    3.9983 H   0  0  0  0  0  0
    1.3583   -5.6139    5.7354 H   0  0  0  0  0  0
  1  2  1  0  0  0
  1 15  1  0  0  0
  1 16  1  0  0  0
  1 17  1  0  0  0
  2  3  1  0  0  0
  2 18  1  0  0  0
  2 19  1  0  0  0
  3  4  1  0  0  0
  3 20  1  0  0  0
  3 21  1  0  0  0
  4  5  1  0  0  0
  4 22  1  0  0  0
  4 23  1  0  0  0
  5  6  1  0  0  0
  5 24  1  0  0  0
  5 25  1  0  0  0
  6  7  1  0  0  0
  6 26  1  0  0  0
  6 27  1  0  0  0
  7  8  1  0  0  0
  7 28  1  0  0  0
  7 29  1  0  0  0
  8  9  1  0  0  0
  8 30  1  0  0  0
  8 31  1  0  0  0
  9 14  1  0  0  0
  9 10  1  0  0  0
 10 11  2  0  0  0
 10 12  1  0  0  0
 12 13  2  0  0  0
 12 32  1  0  0  0
 13 14  1  0  0  0
 13 33  1  0  0  0
M  END
>  <i_m_Spin_multiplicity> (1)
1

>  <s_j_Task> (1)
Single Point

>  <s_j_QM_Method> (1)
DFT(b3lyp-d3)

>  <s_j_QM_Basis> (1)
cc-pvtz(-f)

>  <i_j_Number_of_canonical_orbitals> (1)
493

>  <i_j_Geometry_convergence_category> (1)
3

>  <r_j_Gas_Phase_Energy> (1)
-959.026974161199

>  <r_j_Final_Energy> (1)
-959.026974161199

>  <r_j_HOMO> (1)
-0.266453453737769

>  <r_j_LUMO> (1)
-0.088282692488251

>  <r_j_Polarizability> (1)
156.938308465588

>  <r_j_QM_Dipole_(debye)> (1)
3.31101348740412

>  <r_j_QM_Dipole_X_(debye)> (1)
1.98360905101339

>  <r_j_QM_Dipole_Y_(debye)> (1)
1.22661106379788

>  <r_j_QM_Dipole_Z_(debye)> (1)
2.35021929714621

>  <r_j_Lowest_Frequency_(cm-1)> (1)
43.8923199090226

>  <r_j_Highest_Frequency_(cm-1)> (1)
3199.39310068736

>  <r_j_2nd_Lowest_Frequency_(cm-1)> (1)
51.4413301283921

>  <i_j_Num_Negative_Frequencies> (1)
0

>  <r_j_Zero_Point_Energy_(kcal/mol)> (1)
179.921231792321

>  <r_j_Entropy_(cal/mol/K)_298.15K_1.00E+00atm> (1)
121.046029872095

>  <r_j_Enthalpy_(kcal/mol)_298.15K_1.00E+00atm> (1)
9.91453096314948

>  <r_j_Free_Energy_(kcal/mol)_298.15K_1.00E+00atm> (1)
-26.1753428432157

>  <r_j_Internal_Energy_(kcal/mol)_298.15K_1.00E+00atm> (1)
9.3220453743222

>  <r_j_Heat_Capacity_(cal/mol/K)_298.15K_1.00E+00atm> (1)
56.7067105232096

>  <r_j_ln(Q)_298.15K_1.00E+00atm> (1)
44.178868375559

>  <r_j_Total_Internal_Energy_(au)_298.15K_1.00E+00atm> (1)
-958.725395800689

>  <r_j_Total_Enthalpy_(au)_298.15K_1.00E+00atm> (1)
-958.724451614797

>  <r_j_Total_Free_Energy_(au)_298.15K_1.00E+00atm> (1)
-958.781964489952

>  <r_lp_tautomer_probability> (1)
1

>  <r_epik_Ionization_Penalty> (1)
  0.0000

>  <r_epik_Ionization_Penalty_Charging> (1)
  0.0000

>  <r_epik_Ionization_Penalty_Neutral> (1)
  0.0000

>  <r_epik_State_Penalty> (1)
  0.0000

>  <r_epik_Charging_Adjusted_Penalty> (1)
2.74904e-06

>  <i_epik_Tot_Q> (1)
0

>  <i_epik_Tot_abs_Q> (1)
0

>  <s_lp_Force_Field> (1)
S-OPLS

>  <r_lp_Energy> (1)
5.41138

>  <b_lp_Chiralities_Consistent> (1)
1

$$$$
