33650_Tetradecene
                    3D
 Schrodinger Suite 2021-3.
 42 41  0  0  1  0            999 V2000
   -4.8048    4.3680   -0.0682 C   0  0  0  0  0  0
   -4.2230    2.9537    0.0151 C   0  0  0  0  0  0
   -2.6910    2.9282   -0.0444 C   0  0  0  0  0  0
   -2.1043    1.5144    0.0328 C   0  0  0  0  0  0
   -0.5729    1.4787   -0.0243 C   0  0  0  0  0  0
    0.0003    0.0585    0.0393 C   0  0  0  0  0  0
    1.5313    0.0078   -0.0160 C   0  0  0  0  0  0
    2.0900   -1.4192    0.0243 C   0  0  0  0  0  0
    3.6203   -1.4804   -0.0255 C   0  0  0  0  0  0
    4.1665   -2.9125   -0.0191 C   0  0  0  0  0  0
    5.7075   -2.9853   -0.0457 C   0  0  0  0  0  0
    6.3439   -2.4497    1.2079 C   0  0  0  0  0  0
    7.1561   -1.3926    1.2784 C   0  0  0  0  0  0
    7.7782   -0.8580    2.5366 C   0  0  0  0  0  0
   -5.8988    4.3572   -0.0225 H   0  0  0  0  0  0
   -4.5148    4.8588   -1.0044 H   0  0  0  0  0  0
   -4.4426    4.9925    0.7566 H   0  0  0  0  0  0
   -4.5559    2.4727    0.9450 H   0  0  0  0  0  0
   -4.6259    2.3413   -0.8032 H   0  0  0  0  0  0
   -2.3557    3.4118   -0.9733 H   0  0  0  0  0  0
   -2.2855    3.5374    0.7763 H   0  0  0  0  0  0
   -2.4437    1.0309    0.9602 H   0  0  0  0  0  0
   -2.5115    0.9082   -0.7892 H   0  0  0  0  0  0
   -0.2313    1.9678   -0.9478 H   0  0  0  0  0  0
   -0.1630    2.0755    0.8031 H   0  0  0  0  0  0
   -0.3455   -0.4316    0.9608 H   0  0  0  0  0  0
   -0.4116   -0.5347   -0.7898 H   0  0  0  0  0  0
    1.8794    0.5085   -0.9309 H   0  0  0  0  0  0
    1.9466    0.5862    0.8216 H   0  0  0  0  0  0
    1.7364   -1.9216    0.9362 H   0  0  0  0  0  0
    1.6739   -1.9934   -0.8162 H   0  0  0  0  0  0
    3.9778   -0.9637   -0.9281 H   0  0  0  0  0  0
    4.0405   -0.9270    0.8243 H   0  0  0  0  0  0
    3.7959   -3.4407    0.8711 H   0  0  0  0  0  0
    3.7679   -3.4577   -0.8848 H   0  0  0  0  0  0
    6.0050   -4.0347   -0.1825 H   0  0  0  0  0  0
    6.0842   -2.4374   -0.9194 H   0  0  0  0  0  0
    6.0916   -2.9797    2.1293 H   0  0  0  0  0  0
    7.4012   -0.8606    0.3576 H   0  0  0  0  0  0
    8.8742   -0.8714    2.4765 H   0  0  0  0  0  0
    7.4809   -1.4421    3.4133 H   0  0  0  0  0  0
    7.4880    0.1861    2.7107 H   0  0  0  0  0  0
  1  2  1  0  0  0
  1 15  1  0  0  0
  1 16  1  0  0  0
  1 17  1  0  0  0
  2  3  1  0  0  0
  2 18  1  0  0  0
  2 19  1  0  0  0
  3  4  1  0  0  0
  3 20  1  0  0  0
  3 21  1  0  0  0
  4  5  1  0  0  0
  4 22  1  0  0  0
  4 23  1  0  0  0
  5  6  1  0  0  0
  5 24  1  0  0  0
  5 25  1  0  0  0
  6  7  1  0  0  0
  6 26  1  0  0  0
  6 27  1  0  0  0
  7  8  1  0  0  0
  7 28  1  0  0  0
  7 29  1  0  0  0
  8  9  1  0  0  0
  8 30  1  0  0  0
  8 31  1  0  0  0
  9 10  1  0  0  0
  9 32  1  0  0  0
  9 33  1  0  0  0
 10 11  1  0  0  0
 10 34  1  0  0  0
 10 35  1  0  0  0
 11 12  1  0  0  0
 11 36  1  0  0  0
 11 37  1  0  0  0
 12 13  2  0  0  0
 12 38  1  0  0  0
 13 14  1  0  0  0
 13 39  1  0  0  0
 14 40  1  0  0  0
 14 41  1  0  0  0
 14 42  1  0  0  0
M  END
>  <i_m_Spin_multiplicity> (1)
1

>  <s_j_Task> (1)
Single Point

>  <s_j_QM_Method> (1)
DFT(b3lyp-d3)

>  <s_j_QM_Basis> (1)
cc-pvtz(-f)

>  <i_j_Number_of_canonical_orbitals> (1)
569

>  <i_j_Geometry_convergence_category> (1)
3

>  <r_j_Gas_Phase_Energy> (1)
-550.584003573536

>  <r_j_Final_Energy> (1)
-550.584003573536

>  <r_j_HOMO> (1)
-0.260063112084752

>  <r_j_LUMO> (1)
-0.00100244973406425

>  <r_j_Polarizability> (1)
174.513865352683

>  <r_j_QM_Dipole_(debye)> (1)
0.0756566165944505

>  <r_j_QM_Dipole_X_(debye)> (1)
0.063202860026404

>  <r_j_QM_Dipole_Y_(debye)> (1)
-0.0212122902212161

>  <r_j_QM_Dipole_Z_(debye)> (1)
0.035768154307615

>  <r_j_Lowest_Frequency_(cm-1)> (1)
38.7209651156938

>  <r_j_Highest_Frequency_(cm-1)> (1)
3077.59347684453

>  <r_j_2nd_Lowest_Frequency_(cm-1)> (1)
55.0668712262543

>  <i_j_Num_Negative_Frequencies> (1)
0

>  <r_j_Zero_Point_Energy_(kcal/mol)> (1)
246.336937233102

>  <r_j_Entropy_(cal/mol/K)_298.15K_1.00E+00atm> (1)
130.517757020359

>  <r_j_Enthalpy_(kcal/mol)_298.15K_1.00E+00atm> (1)
11.3942243423528

>  <r_j_Free_Energy_(kcal/mol)_298.15K_1.00E+00atm> (1)
-27.5196449132674

>  <r_j_Internal_Energy_(kcal/mol)_298.15K_1.00E+00atm> (1)
10.8017387535255

>  <r_j_Heat_Capacity_(cal/mol/K)_298.15K_1.00E+00atm> (1)
65.2288685009716

>  <r_j_ln(Q)_298.15K_1.00E+00atm> (1)
46.4477878149541

>  <r_j_Total_Internal_Energy_(au)_298.15K_1.00E+00atm> (1)
-550.174227007158

>  <r_j_Total_Enthalpy_(au)_298.15K_1.00E+00atm> (1)
-550.173282821265

>  <r_j_Total_Free_Energy_(au)_298.15K_1.00E+00atm> (1)
-550.235296019657

>  <r_lp_tautomer_probability> (1)
1

>  <r_epik_Ionization_Penalty> (1)
  0.0000

>  <r_epik_Ionization_Penalty_Charging> (1)
  0.0000

>  <r_epik_Ionization_Penalty_Neutral> (1)
  0.0000

>  <r_epik_State_Penalty> (1)
  0.0000

>  <r_epik_Charging_Adjusted_Penalty> (1)
0

>  <i_epik_Tot_Q> (1)
0

>  <i_epik_Tot_abs_Q> (1)
0

>  <s_lp_Force_Field> (1)
S-OPLS

>  <r_lp_Energy> (1)
0.569005

>  <b_lp_Chiralities_Consistent> (1)
1

$$$$
