33712_1-Methyl-2-tert-butylbenzene
                    3D
 Schrodinger Suite 2021-3.
 27 27  0  0  1  0            999 V2000
   -0.0100    0.2670    0.1792 C   0  0  0  0  0  0
    1.4932    0.0915    0.0572 C   0  0  0  0  0  0
    2.2395    1.2794    0.0361 C   0  0  0  0  0  0
    3.6291    1.2929   -0.0313 C   0  0  0  0  0  0
    4.3034    0.0795   -0.0847 C   0  0  0  0  0  0
    3.5789   -1.1110   -0.0700 C   0  0  0  0  0  0
    2.1761   -1.1544    0.0016 C   0  0  0  0  0  0
    1.4606   -2.5306   -0.0183 C   0  0  0  0  0  0
    2.4585   -3.7067    0.0793 C   0  0  0  0  0  0
    0.7003   -2.7067   -1.3552 C   0  0  0  0  0  0
    0.4941   -2.6879    1.1805 C   0  0  0  0  0  0
   -0.2977    1.2727   -0.1402 H   0  0  0  0  0  0
   -0.3386    0.1546    1.2185 H   0  0  0  0  0  0
   -0.5847   -0.4397   -0.4192 H   0  0  0  0  0  0
    1.7039    2.2250    0.0768 H   0  0  0  0  0  0
    4.1690    2.2352   -0.0442 H   0  0  0  0  0  0
    5.3879    0.0485   -0.1398 H   0  0  0  0  0  0
    4.1418   -2.0339   -0.1152 H   0  0  0  0  0  0
    1.9032   -4.6500    0.0854 H   0  0  0  0  0  0
    3.0503   -3.6640    0.9993 H   0  0  0  0  0  0
    3.1441   -3.7418   -0.7727 H   0  0  0  0  0  0
    1.3984   -2.6698   -2.1976 H   0  0  0  0  0  0
   -0.0527   -1.9342   -1.5187 H   0  0  0  0  0  0
    0.1907   -3.6768   -1.3769 H   0  0  0  0  0  0
    0.0974   -3.7090    1.2061 H   0  0  0  0  0  0
   -0.3596   -2.0138    1.1356 H   0  0  0  0  0  0
    1.0194   -2.5070    2.1241 H   0  0  0  0  0  0
  1  2  1  0  0  0
  1 12  1  0  0  0
  1 13  1  0  0  0
  1 14  1  0  0  0
  2  7  1  0  0  0
  2  3  2  0  0  0
  3  4  1  0  0  0
  3 15  1  0  0  0
  4  5  2  0  0  0
  4 16  1  0  0  0
  5  6  1  0  0  0
  5 17  1  0  0  0
  6  7  2  0  0  0
  6 18  1  0  0  0
  7  8  1  0  0  0
  8  9  1  0  0  0
  8 10  1  0  0  0
  8 11  1  0  0  0
  9 19  1  0  0  0
  9 20  1  0  0  0
  9 21  1  0  0  0
 10 22  1  0  0  0
 10 23  1  0  0  0
 10 24  1  0  0  0
 11 25  1  0  0  0
 11 26  1  0  0  0
 11 27  1  0  0  0
M  END
>  <i_m_Spin_multiplicity> (1)
1

>  <s_j_Task> (1)
Single Point

>  <s_j_QM_Method> (1)
DFT(b3lyp-d3)

>  <s_j_QM_Basis> (1)
cc-pvtz(-f)

>  <i_j_Number_of_canonical_orbitals> (1)
389

>  <i_j_Geometry_convergence_category> (1)
3

>  <r_j_Gas_Phase_Energy> (1)
-428.973223067124

>  <r_j_Final_Energy> (1)
-428.973223067124

>  <r_j_HOMO> (1)
-0.241192656365158

>  <r_j_LUMO> (1)
-0.0111513304034453

>  <r_j_Polarizability> (1)
125.737829698651

>  <r_j_QM_Dipole_(debye)> (1)
0.532467468148063

>  <r_j_QM_Dipole_X_(debye)> (1)
-0.466167312040107

>  <r_j_QM_Dipole_Y_(debye)> (1)
-0.254464645414672

>  <r_j_QM_Dipole_Z_(debye)> (1)
0.0381757259956491

>  <r_j_Lowest_Frequency_(cm-1)> (1)
99.0463078335993

>  <r_j_Highest_Frequency_(cm-1)> (1)
3176.87443831934

>  <r_j_2nd_Lowest_Frequency_(cm-1)> (1)
127.868284618493

>  <i_j_Num_Negative_Frequencies> (1)
0

>  <r_j_Zero_Point_Energy_(kcal/mol)> (1)
150.884162420475

>  <r_j_Entropy_(cal/mol/K)_298.15K_1.00E+00atm> (1)
97.6145596105131

>  <r_j_Enthalpy_(kcal/mol)_298.15K_1.00E+00atm> (1)
7.27958747949844

>  <r_j_Free_Energy_(kcal/mol)_298.15K_1.00E+00atm> (1)
-21.824193468376

>  <r_j_Internal_Energy_(kcal/mol)_298.15K_1.00E+00atm> (1)
6.68710189067116

>  <r_j_Heat_Capacity_(cal/mol/K)_298.15K_1.00E+00atm> (1)
44.0467802219242

>  <r_j_ln(Q)_298.15K_1.00E+00atm> (1)
36.834977727599

>  <r_j_Total_Internal_Energy_(au)_298.15K_1.00E+00atm> (1)
-428.722117272161

>  <r_j_Total_Enthalpy_(au)_298.15K_1.00E+00atm> (1)
-428.721173086269

>  <r_j_Total_Free_Energy_(au)_298.15K_1.00E+00atm> (1)
-428.767552913728

>  <r_lp_tautomer_probability> (1)
1

>  <r_epik_Ionization_Penalty> (1)
  0.0000

>  <r_epik_Ionization_Penalty_Charging> (1)
  0.0000

>  <r_epik_Ionization_Penalty_Neutral> (1)
  0.0000

>  <r_epik_State_Penalty> (1)
  0.0000

>  <r_epik_Charging_Adjusted_Penalty> (1)
0

>  <i_epik_Tot_Q> (1)
0

>  <i_epik_Tot_abs_Q> (1)
0

>  <s_lp_Force_Field> (1)
S-OPLS

>  <r_lp_Energy> (1)
20.2204

>  <b_lp_Chiralities_Consistent> (1)
1

$$$$
