33744_Cis-2-Nonene
                    3D
 Schrodinger Suite 2021-3.
 27 26  0  0  1  0            999 V2000
   -2.6623    2.9332   -0.0002 C   0  0  0  0  0  0
   -2.1079    1.5056   -0.0002 C   0  0  0  0  0  0
   -0.5755    1.4560    0.0002 C   0  0  0  0  0  0
   -0.0129    0.0304    0.0002 C   0  0  0  0  0  0
    1.5177   -0.0230    0.0002 C   0  0  0  0  0  0
    2.0745   -1.4523    0.0003 C   0  0  0  0  0  0
    3.5884   -1.5030    0.0000 C   0  0  0  0  0  0
    4.3200   -2.6187    0.0000 C   0  0  0  0  0  0
    5.8318   -2.6577   -0.0003 C   0  0  0  0  0  0
   -3.7573    2.9405   -0.0005 H   0  0  0  0  0  0
   -2.3245    3.4870   -0.8839 H   0  0  0  0  0  0
   -2.3250    3.4868    0.8837 H   0  0  0  0  0  0
   -2.4867    0.9635    0.8771 H   0  0  0  0  0  0
   -2.4863    0.9636   -0.8778 H   0  0  0  0  0  0
   -0.1947    1.9981   -0.8775 H   0  0  0  0  0  0
   -0.1951    1.9979    0.8781 H   0  0  0  0  0  0
   -0.3950   -0.5108    0.8779 H   0  0  0  0  0  0
   -0.3949   -0.5107   -0.8777 H   0  0  0  0  0  0
    1.9026    0.5151   -0.8777 H   0  0  0  0  0  0
    1.9026    0.5151    0.8781 H   0  0  0  0  0  0
    1.6834   -1.9893    0.8762 H   0  0  0  0  0  0
    1.6831   -1.9895   -0.8754 H   0  0  0  0  0  0
    4.1032   -0.5395   -0.0002 H   0  0  0  0  0  0
    3.8035   -3.5796    0.0002 H   0  0  0  0  0  0
    6.2067   -3.6851   -0.0003 H   0  0  0  0  0  0
    6.2490   -2.1572    0.8815 H   0  0  0  0  0  0
    6.2487   -2.1574   -0.8824 H   0  0  0  0  0  0
  1  2  1  0  0  0
  1 10  1  0  0  0
  1 11  1  0  0  0
  1 12  1  0  0  0
  2  3  1  0  0  0
  2 13  1  0  0  0
  2 14  1  0  0  0
  3  4  1  0  0  0
  3 15  1  0  0  0
  3 16  1  0  0  0
  4  5  1  0  0  0
  4 17  1  0  0  0
  4 18  1  0  0  0
  5  6  1  0  0  0
  5 19  1  0  0  0
  5 20  1  0  0  0
  6  7  1  0  0  0
  6 21  1  0  0  0
  6 22  1  0  0  0
  7  8  2  0  0  0
  7 23  1  0  0  0
  8  9  1  0  0  0
  8 24  1  0  0  0
  9 25  1  0  0  0
  9 26  1  0  0  0
  9 27  1  0  0  0
M  END
>  <i_m_Spin_multiplicity> (1)
1

>  <s_j_Task> (1)
Single Point

>  <s_j_QM_Method> (1)
DFT(b3lyp-d3)

>  <s_j_QM_Basis> (1)
cc-pvtz(-f)

>  <i_j_Number_of_canonical_orbitals> (1)
365

>  <i_j_Geometry_convergence_category> (1)
0

>  <r_j_Gas_Phase_Energy> (1)
-353.930081878615

>  <r_j_Final_Energy> (1)
-353.930081878615

>  <r_j_HOMO> (1)
-0.25024672937056

>  <r_j_LUMO> (1)
-0.00534896940556295

>  <r_j_Polarizability> (1)
112.717411168605

>  <r_j_QM_Dipole_(debye)> (1)
0.0706801288848023

>  <r_j_QM_Dipole_X_(debye)> (1)
-0.0634528789742349

>  <r_j_QM_Dipole_Y_(debye)> (1)
-0.0311349066576586

>  <r_j_QM_Dipole_Z_(debye)> (1)
0.000174231088613482

>  <r_j_Lowest_Frequency_(cm-1)> (1)
-138.919629025841

>  <r_j_Highest_Frequency_(cm-1)> (1)
3079.56482108951

>  <r_j_2nd_Lowest_Frequency_(cm-1)> (1)
77.2911179368747

>  <i_j_Num_Negative_Frequencies> (1)
1

>  <r_j_Zero_Point_Energy_(kcal/mol)> (1)
156.309942925422

>  <r_j_Entropy_(cal/mol/K)_298.15K_1.00E+00atm> (1)
101.304131662569

>  <r_j_Enthalpy_(kcal/mol)_298.15K_1.00E+00atm> (1)
7.46233742142329

>  <r_j_Free_Energy_(kcal/mol)_298.15K_1.00E+00atm> (1)
-22.7414894337716

>  <r_j_Internal_Energy_(kcal/mol)_298.15K_1.00E+00atm> (1)
6.86985183259601

>  <r_j_Heat_Capacity_(cal/mol/K)_298.15K_1.00E+00atm> (1)
40.0759961798484

>  <r_j_ln(Q)_298.15K_1.00E+00atm> (1)
38.3831942288834

>  <r_j_Total_Internal_Energy_(au)_298.15K_1.00E+00atm> (1)
-353.670038321411

>  <r_j_Total_Enthalpy_(au)_298.15K_1.00E+00atm> (1)
-353.669094135519

>  <r_j_Total_Free_Energy_(au)_298.15K_1.00E+00atm> (1)
-353.717226997729

>  <r_lp_tautomer_probability> (1)
1

>  <r_epik_Ionization_Penalty> (1)
  0.0000

>  <r_epik_Ionization_Penalty_Charging> (1)
  0.0000

>  <r_epik_Ionization_Penalty_Neutral> (1)
  0.0000

>  <r_epik_State_Penalty> (1)
  0.0000

>  <r_epik_Charging_Adjusted_Penalty> (1)
0

>  <i_epik_Tot_Q> (1)
0

>  <i_epik_Tot_abs_Q> (1)
0

>  <s_lp_Force_Field> (1)
S-OPLS

>  <r_lp_Energy> (1)
2.536855

>  <b_lp_Chiralities_Consistent> (1)
1

$$$$
