33743_Cyclopenta[cd]pyrene
                    3D
 Schrodinger Suite 2021-3.
 28 32  0  0  1  0            999 V2000
    3.5019   -0.6401   -1.3080 C   0  0  0  0  0  0
    3.4702   -0.1629    0.0032 C   0  0  0  0  0  0
    2.2436    0.1209    0.6258 C   0  0  0  0  0  0
    1.0518   -0.0908   -0.1136 C   0  0  0  0  0  0
    1.0700   -0.5798   -1.4599 C   0  0  0  0  0  0
    2.3258   -0.8470   -2.0321 C   0  0  0  0  0  0
   -0.1709   -0.7834   -2.1837 C   0  0  0  0  0  0
   -1.3678   -0.5062   -1.5756 C   0  0  0  0  0  0
   -2.7936   -0.5673   -1.9310 C   0  0  0  0  0  0
   -3.5347   -0.1453   -0.8625 C   0  0  0  0  0  0
   -2.6364    0.2149    0.2485 C   0  0  0  0  0  0
   -1.3438   -0.0195   -0.2294 C   0  0  0  0  0  0
   -0.1913    0.1921    0.5046 C   0  0  0  0  0  0
   -0.3112    0.6805    1.8359 C   0  0  0  0  0  0
    0.9166    0.8837    2.5567 C   0  0  0  0  0  0
    2.1262    0.6166    1.9776 C   0  0  0  0  0  0
   -1.6120    0.9215    2.3309 C   0  0  0  0  0  0
   -2.7643    0.6958    1.5581 C   0  0  0  0  0  0
    4.4588   -0.8547   -1.7746 H   0  0  0  0  0  0
    4.3973   -0.0088    0.5491 H   0  0  0  0  0  0
    2.3785   -1.2194   -3.0519 H   0  0  0  0  0  0
   -0.1160   -1.1558   -3.2040 H   0  0  0  0  0  0
   -3.1867   -0.8944   -2.8856 H   0  0  0  0  0  0
   -4.6160   -0.0837   -0.8330 H   0  0  0  0  0  0
    0.8725    1.2556    3.5771 H   0  0  0  0  0  0
    3.0417    0.7776    2.5412 H   0  0  0  0  0  0
   -1.7228    1.2947    3.3458 H   0  0  0  0  0  0
   -3.7409    0.8985    1.9895 H   0  0  0  0  0  0
  1  6  1  0  0  0
  1  2  2  0  0  0
  1 19  1  0  0  0
  2  3  1  0  0  0
  2 20  1  0  0  0
  3 16  1  0  0  0
  3  4  2  0  0  0
  4 13  1  0  0  0
  4  5  1  0  0  0
  5  6  2  0  0  0
  5  7  1  0  0  0
  6 21  1  0  0  0
  7  8  2  0  0  0
  7 22  1  0  0  0
  8 12  1  0  0  0
  8  9  1  0  0  0
  9 10  2  0  0  0
  9 23  1  0  0  0
 10 11  1  0  0  0
 10 24  1  0  0  0
 11 18  1  0  0  0
 11 12  2  0  0  0
 12 13  1  0  0  0
 13 14  2  0  0  0
 14 15  1  0  0  0
 14 17  1  0  0  0
 15 16  2  0  0  0
 15 25  1  0  0  0
 16 26  1  0  0  0
 17 18  2  0  0  0
 17 27  1  0  0  0
 18 28  1  0  0  0
M  END
>  <i_m_Spin_multiplicity> (1)
1

>  <s_j_Task> (1)
Single Point

>  <s_j_QM_Method> (1)
DFT(b3lyp-d3)

>  <s_j_QM_Basis> (1)
cc-pvtz(-f)

>  <i_j_Number_of_canonical_orbitals> (1)
487

>  <i_j_Geometry_convergence_category> (1)
0

>  <r_j_Gas_Phase_Energy> (1)
-692.184668378964

>  <r_j_Final_Energy> (1)
-692.184668378964

>  <r_j_HOMO> (1)
-0.208643541275166

>  <r_j_LUMO> (1)
-0.0883681998034239

>  <r_j_Polarizability> (1)
214.61129171575

>  <r_j_QM_Dipole_(debye)> (1)
0.773708938080437

>  <r_j_QM_Dipole_X_(debye)> (1)
0.752644327466328

>  <r_j_QM_Dipole_Y_(debye)> (1)
-0.0915479397600448

>  <r_j_QM_Dipole_Z_(debye)> (1)
-0.154178506686267

>  <r_j_Lowest_Frequency_(cm-1)> (1)
117.682769889087

>  <r_j_Highest_Frequency_(cm-1)> (1)
3181.72054779588

>  <r_j_2nd_Lowest_Frequency_(cm-1)> (1)
138.202018721907

>  <i_j_Num_Negative_Frequencies> (1)
0

>  <r_j_Zero_Point_Energy_(kcal/mol)> (1)
136.731135451014

>  <r_j_Entropy_(cal/mol/K)_298.15K_1.00E+00atm> (1)
100.509173849146

>  <r_j_Enthalpy_(kcal/mol)_298.15K_1.00E+00atm> (1)
7.33356813075758

>  <r_j_Free_Energy_(kcal/mol)_298.15K_1.00E+00atm> (1)
-22.6332420523654

>  <r_j_Internal_Energy_(kcal/mol)_298.15K_1.00E+00atm> (1)
6.74108254193031

>  <r_j_Heat_Capacity_(cal/mol/K)_298.15K_1.00E+00atm> (1)
48.5866201049387

>  <r_j_ln(Q)_298.15K_1.00E+00atm> (1)
38.2004937827502

>  <r_j_Total_Internal_Energy_(au)_298.15K_1.00E+00atm> (1)
-691.956030844628

>  <r_j_Total_Enthalpy_(au)_298.15K_1.00E+00atm> (1)
-691.955086658736

>  <r_j_Total_Free_Energy_(au)_298.15K_1.00E+00atm> (1)
-692.002841810835

>  <r_lp_tautomer_probability> (1)
1

>  <r_epik_Ionization_Penalty> (1)
  0.0000

>  <r_epik_Ionization_Penalty_Charging> (1)
  0.0000

>  <r_epik_Ionization_Penalty_Neutral> (1)
  0.0000

>  <r_epik_State_Penalty> (1)
  0.0000

>  <r_epik_Charging_Adjusted_Penalty> (1)
0

>  <i_epik_Tot_Q> (1)
0

>  <i_epik_Tot_abs_Q> (1)
0

>  <s_lp_Force_Field> (1)
S-OPLS

>  <r_lp_Energy> (1)
38.605

>  <b_lp_Chiralities_Consistent> (1)
1

$$$$
