33781_1-Methylindole
                    3D
 Schrodinger Suite 2021-3.
 19 20  0  0  1  0            999 V2000
   -0.0208    0.0010   -0.0001 C   0  0  0  0  0  0
    1.4912    0.0153    0.0000 C   0  0  0  0  0  0
    2.2006    1.2108    0.0001 C   0  0  0  0  0  0
    3.6067    1.1935    0.0001 C   0  0  0  0  0  0
    4.2788   -0.0575    0.0001 C   0  0  0  0  0  0
    3.5825   -1.2699    0.0000 C   0  0  0  0  0  0
    2.1964   -1.2134    0.0000 C   0  0  0  0  0  0
    5.6341    0.2046    0.0000 N   0  0  0  0  0  0
    5.8323    1.5732   -0.0001 C   0  0  0  0  0  0
    4.6202    2.2112    0.0000 C   0  0  0  0  0  0
   -0.4320    1.0146   -0.0001 H   0  0  0  0  0  0
   -0.4157   -0.5188    0.8811 H   0  0  0  0  0  0
   -0.4156   -0.5188   -0.8813 H   0  0  0  0  0  0
    1.6697    2.1595    0.0000 H   0  0  0  0  0  0
    4.1059   -2.2220    0.0000 H   0  0  0  0  0  0
    1.6295   -2.1410    0.0000 H   0  0  0  0  0  0
    6.3622   -0.4897   -0.0001 H   0  0  0  0  0  0
    6.8328    1.9811   -0.0002 H   0  0  0  0  0  0
    4.4655    3.2803    0.0000 H   0  0  0  0  0  0
  1  2  1  0  0  0
  1 11  1  0  0  0
  1 12  1  0  0  0
  1 13  1  0  0  0
  2  7  1  0  0  0
  2  3  2  0  0  0
  3  4  1  0  0  0
  3 14  1  0  0  0
  4 10  1  0  0  0
  4  5  2  0  0  0
  5  6  1  0  0  0
  5  8  1  0  0  0
  6  7  2  0  0  0
  6 15  1  0  0  0
  7 16  1  0  0  0
  8  9  1  0  0  0
  8 17  1  0  0  0
  9 10  2  0  0  0
  9 18  1  0  0  0
 10 19  1  0  0  0
M  END
>  <i_m_Spin_multiplicity> (1)
1

>  <s_j_Task> (1)
Single Point

>  <s_j_QM_Method> (1)
DFT(b3lyp-d3)

>  <s_j_QM_Basis> (1)
cc-pvtz(-f)

>  <i_j_Number_of_canonical_orbitals> (1)
304

>  <i_j_Geometry_convergence_category> (1)
0

>  <r_j_Gas_Phase_Energy> (1)
-403.272866929811

>  <r_j_Final_Energy> (1)
-403.272866929811

>  <r_j_HOMO> (1)
-0.204198518310733

>  <r_j_LUMO> (1)
-0.0138176005754245

>  <r_j_Polarizability> (1)
108.399829005952

>  <r_j_QM_Dipole_(debye)> (1)
1.92240863151682

>  <r_j_QM_Dipole_X_(debye)> (1)
1.78028822229425

>  <r_j_QM_Dipole_Y_(debye)> (1)
-0.725416215755145

>  <r_j_QM_Dipole_Z_(debye)> (1)
-0.00032559216627799

>  <r_j_Lowest_Frequency_(cm-1)> (1)
151.180946329827

>  <r_j_Highest_Frequency_(cm-1)> (1)
3633.49513580095

>  <r_j_2nd_Lowest_Frequency_(cm-1)> (1)
200.329033984786

>  <i_j_Num_Negative_Frequencies> (1)
0

>  <r_j_Zero_Point_Energy_(kcal/mol)> (1)
98.0384095326255

>  <r_j_Entropy_(cal/mol/K)_298.15K_1.00E+00atm> (1)
85.9150740488463

>  <r_j_Enthalpy_(kcal/mol)_298.15K_1.00E+00atm> (1)
5.49555135863174

>  <r_j_Free_Energy_(kcal/mol)_298.15K_1.00E+00atm> (1)
-20.1200279690318

>  <r_j_Internal_Energy_(kcal/mol)_298.15K_1.00E+00atm> (1)
4.90306576980446

>  <r_j_Heat_Capacity_(cal/mol/K)_298.15K_1.00E+00atm> (1)
32.1574352965182

>  <r_j_ln(Q)_298.15K_1.00E+00atm> (1)
33.9586790775046

>  <r_j_Total_Internal_Energy_(au)_298.15K_1.00E+00atm> (1)
-403.108819245714

>  <r_j_Total_Enthalpy_(au)_298.15K_1.00E+00atm> (1)
-403.107875059821

>  <r_j_Total_Free_Energy_(au)_298.15K_1.00E+00atm> (1)
-403.148696084128

>  <r_lp_tautomer_probability> (1)
1

>  <r_epik_Ionization_Penalty> (1)
  0.0000

>  <r_epik_Ionization_Penalty_Charging> (1)
  0.0000

>  <r_epik_Ionization_Penalty_Neutral> (1)
  0.0000

>  <r_epik_State_Penalty> (1)
  0.0000

>  <r_epik_Charging_Adjusted_Penalty> (1)
0

>  <i_epik_Tot_Q> (1)
0

>  <i_epik_Tot_abs_Q> (1)
0

>  <s_lp_Force_Field> (1)
S-OPLS

>  <r_lp_Energy> (1)
9.79769

>  <b_lp_Chiralities_Consistent> (1)
1

$$$$
