338_Salicylic acid
                    3D
 Schrodinger Suite 2021-3.
 15 15  0  0  1  0            999 V2000
   -2.7558   -0.0013    0.0000 C   0  0  0  0  0  0
   -2.0796    1.2179    0.0000 C   0  0  0  0  0  0
   -0.6860    1.2223    0.0000 C   0  0  0  0  0  0
    0.0469    0.0226    0.0000 C   0  0  0  0  0  0
   -0.6175   -1.2232    0.0000 C   0  0  0  0  0  0
   -2.0169   -1.1858    0.0000 C   0  0  0  0  0  0
    0.0748   -2.6360    0.0000 C   0  0  0  0  0  0
   -0.7360   -3.5981   -0.0002 O   0  0  0  0  0  0
    1.3243   -2.6432    0.0001 O   0  5  0  0  0  0
    1.4183    0.0851    0.0000 O   0  0  0  0  0  0
   -3.8438   -0.0282    0.0000 H   0  0  0  0  0  0
   -2.6231    2.1611    0.0000 H   0  0  0  0  0  0
   -0.1456    2.1714    0.0000 H   0  0  0  0  0  0
   -2.4951   -2.1616    0.0000 H   0  0  0  0  0  0
    1.6518    1.0239    0.0000 H   0  0  0  0  0  0
  1  6  1  0  0  0
  1  2  2  0  0  0
  1 11  1  0  0  0
  2  3  1  0  0  0
  2 12  1  0  0  0
  3  4  2  0  0  0
  3 13  1  0  0  0
  4  5  1  0  0  0
  4 10  1  0  0  0
  5  6  2  0  0  0
  5  7  1  0  0  0
  6 14  1  0  0  0
  7  8  2  0  0  0
  7  9  1  0  0  0
 10 15  1  0  0  0
M  END
>  <i_m_Spin_multiplicity> (1)
1

>  <s_j_Task> (1)
Single Point

>  <s_j_QM_Method> (1)
DFT(b3lyp-d3)

>  <s_j_QM_Basis> (1)
cc-pvtz(-f)

>  <i_j_Number_of_canonical_orbitals> (1)
270

>  <i_j_Geometry_convergence_category> (1)
0

>  <r_j_Gas_Phase_Energy> (1)
-495.654454768593

>  <r_j_Final_Energy> (1)
-495.654454768593

>  <r_j_HOMO> (1)
-0.0492054393872032

>  <r_j_LUMO> (1)
0.115597006893175

>  <r_j_Polarizability> (1)
91.0256402967745

>  <r_j_QM_Dipole_(debye)> (1)
9.42633491185422

>  <r_j_QM_Dipole_X_(debye)> (1)
-2.61339132110885

>  <r_j_QM_Dipole_Y_(debye)> (1)
9.05681928929138

>  <r_j_QM_Dipole_Z_(debye)> (1)
0.000185241042632368

>  <r_j_Lowest_Frequency_(cm-1)> (1)
57.9453738839585

>  <r_j_Highest_Frequency_(cm-1)> (1)
3730.99376595229

>  <r_j_2nd_Lowest_Frequency_(cm-1)> (1)
139.242382662165

>  <i_j_Num_Negative_Frequencies> (1)
0

>  <r_j_Zero_Point_Energy_(kcal/mol)> (1)
66.1217792928345

>  <r_j_Entropy_(cal/mol/K)_298.15K_1.00E+00atm> (1)
87.5318628057543

>  <r_j_Enthalpy_(kcal/mol)_298.15K_1.00E+00atm> (1)
5.52916967318818

>  <r_j_Free_Energy_(kcal/mol)_298.15K_1.00E+00atm> (1)
-20.5684552223475

>  <r_j_Internal_Energy_(kcal/mol)_298.15K_1.00E+00atm> (1)
4.93668408436091

>  <r_j_Heat_Capacity_(cal/mol/K)_298.15K_1.00E+00atm> (1)
30.3932852518508

>  <r_j_ln(Q)_298.15K_1.00E+00atm> (1)
34.7155367323942

>  <r_j_Total_Internal_Energy_(au)_298.15K_1.00E+00atm> (1)
-495.541215898465

>  <r_j_Total_Enthalpy_(au)_298.15K_1.00E+00atm> (1)
-495.540271712573

>  <r_j_Total_Free_Energy_(au)_298.15K_1.00E+00atm> (1)
-495.581860925395

>  <r_lp_tautomer_probability> (1)
1

>  <r_epik_Ionization_Penalty> (1)
  0.0001

>  <r_epik_Ionization_Penalty_Charging> (1)
  0.0001

>  <r_epik_Ionization_Penalty_Neutral> (1)
  0.0000

>  <r_epik_State_Penalty> (1)
  0.0000

>  <r_epik_Charging_Adjusted_Penalty> (1)
5.40329e-05

>  <i_epik_Tot_Q> (1)
-1

>  <i_epik_Tot_abs_Q> (1)
1

>  <s_lp_Force_Field> (1)
S-OPLS

>  <r_lp_Energy> (1)
24.1998

>  <b_lp_Chiralities_Consistent> (1)
1

$$$$
