34454_Dimethylphenanthrenes
                    3D
 Schrodinger Suite 2021-3.
 30 32  0  0  1  0            999 V2000
   -0.0384   -0.0731   -0.0001 C   0  0  0  0  0  0
    1.4753    0.0173    0.0000 C   0  0  0  0  0  0
    2.1922    1.2536    0.0000 C   0  0  0  0  0  0
    1.5243    2.5214    0.0000 C   0  0  0  0  0  0
    2.1694    3.7246    0.0000 C   0  0  0  0  0  0
    3.6153    3.7497    0.0000 C   0  0  0  0  0  0
    4.3489    4.9627    0.0000 C   0  0  0  0  0  0
    5.7284    4.9784   -0.0001 C   0  0  0  0  0  0
    6.4378    3.7667   -0.0001 C   0  0  0  0  0  0
    5.7521    2.5689   -0.0001 C   0  0  0  0  0  0
    4.3374    2.5145    0.0000 C   0  0  0  0  0  0
    3.6215    1.2453    0.0000 C   0  0  0  0  0  0
    4.2929    0.0015    0.0001 C   0  0  0  0  0  0
    3.5892   -1.1860    0.0001 C   0  0  0  0  0  0
    2.1872   -1.1725    0.0001 C   0  0  0  0  0  0
    1.3223    4.9833    0.0001 C   0  0  0  0  0  0
   -0.5411    0.8930   -0.0004 H   0  0  0  0  0  0
   -0.3889   -0.6218    0.8812 H   0  0  0  0  0  0
   -0.3887   -0.6222   -0.8812 H   0  0  0  0  0  0
    0.4401    2.5367    0.0000 H   0  0  0  0  0  0
    3.8199    5.9079    0.0000 H   0  0  0  0  0  0
    6.2617    5.9245   -0.0001 H   0  0  0  0  0  0
    7.5239    3.7688   -0.0001 H   0  0  0  0  0  0
    6.3262    1.6502   -0.0001 H   0  0  0  0  0  0
    5.3753   -0.0366    0.0001 H   0  0  0  0  0  0
    4.1212   -2.1328    0.0001 H   0  0  0  0  0  0
    1.6421   -2.1135    0.0001 H   0  0  0  0  0  0
    1.9014    5.9057    0.0003 H   0  0  0  0  0  0
    0.6730    5.0085    0.8819 H   0  0  0  0  0  0
    0.6732    5.0087   -0.8818 H   0  0  0  0  0  0
  1  2  1  0  0  0
  1 17  1  0  0  0
  1 18  1  0  0  0
  1 19  1  0  0  0
  2 15  1  0  0  0
  2  3  2  0  0  0
  3 12  1  0  0  0
  3  4  1  0  0  0
  4  5  2  0  0  0
  4 20  1  0  0  0
  5  6  1  0  0  0
  5 16  1  0  0  0
  6 11  1  0  0  0
  6  7  2  0  0  0
  7  8  1  0  0  0
  7 21  1  0  0  0
  8  9  2  0  0  0
  8 22  1  0  0  0
  9 10  1  0  0  0
  9 23  1  0  0  0
 10 11  2  0  0  0
 10 24  1  0  0  0
 11 12  1  0  0  0
 12 13  2  0  0  0
 13 14  1  0  0  0
 13 25  1  0  0  0
 14 15  2  0  0  0
 14 26  1  0  0  0
 15 27  1  0  0  0
 16 28  1  0  0  0
 16 29  1  0  0  0
 16 30  1  0  0  0
M  END
>  <i_m_Spin_multiplicity> (1)
1

>  <s_j_Task> (1)
Single Point

>  <s_j_QM_Method> (1)
DFT(b3lyp-d3)

>  <s_j_QM_Basis> (1)
cc-pvtz(-f)

>  <i_j_Number_of_canonical_orbitals> (1)
479

>  <i_j_Geometry_convergence_category> (1)
0

>  <r_j_Gas_Phase_Energy> (1)
-618.372597260901

>  <r_j_Final_Energy> (1)
-618.372597260901

>  <r_j_HOMO> (1)
-0.198655959600744

>  <r_j_LUMO> (1)
-0.0340296851845154

>  <r_j_Polarizability> (1)
191.374465043127

>  <r_j_QM_Dipole_(debye)> (1)
0.658142070882215

>  <r_j_QM_Dipole_X_(debye)> (1)
-0.622575466892644

>  <r_j_QM_Dipole_Y_(debye)> (1)
0.213426271642356

>  <r_j_QM_Dipole_Z_(debye)> (1)
7.83460152200923e-06

>  <r_j_Lowest_Frequency_(cm-1)> (1)
-75.3051302330651

>  <r_j_Highest_Frequency_(cm-1)> (1)
3173.0049329249

>  <r_j_2nd_Lowest_Frequency_(cm-1)> (1)
57.1958357561329

>  <i_j_Num_Negative_Frequencies> (1)
1

>  <r_j_Zero_Point_Energy_(kcal/mol)> (1)
155.726413951389

>  <r_j_Entropy_(cal/mol/K)_298.15K_1.00E+00atm> (1)
106.352135647151

>  <r_j_Enthalpy_(kcal/mol)_298.15K_1.00E+00atm> (1)
8.09854870449783

>  <r_j_Free_Energy_(kcal/mol)_298.15K_1.00E+00atm> (1)
-23.6103405387002

>  <r_j_Internal_Energy_(kcal/mol)_298.15K_1.00E+00atm> (1)
7.50606311567056

>  <r_j_Heat_Capacity_(cal/mol/K)_298.15K_1.00E+00atm> (1)
50.1303476609033

>  <r_j_ln(Q)_298.15K_1.00E+00atm> (1)
39.8496452638332

>  <r_j_Total_Internal_Energy_(au)_298.15K_1.00E+00atm> (1)
-618.112469749093

>  <r_j_Total_Enthalpy_(au)_298.15K_1.00E+00atm> (1)
-618.1115255632

>  <r_j_Total_Free_Energy_(au)_298.15K_1.00E+00atm> (1)
-618.162056895012

>  <r_lp_tautomer_probability> (1)
1

>  <r_epik_Ionization_Penalty> (1)
  0.0000

>  <r_epik_Ionization_Penalty_Charging> (1)
  0.0000

>  <r_epik_Ionization_Penalty_Neutral> (1)
  0.0000

>  <r_epik_State_Penalty> (1)
  0.0000

>  <r_epik_Charging_Adjusted_Penalty> (1)
0

>  <i_epik_Tot_Q> (1)
0

>  <i_epik_Tot_abs_Q> (1)
0

>  <s_lp_Force_Field> (1)
S-OPLS

>  <r_lp_Energy> (1)
39.5411

>  <b_lp_Chiralities_Consistent> (1)
1

$$$$
