35368_1,2,3-trimethylcyclopentane
                    3D
 Schrodinger Suite 2021-3.
 24 24  0  0  1  0            999 V2000
   -0.0258   -0.1230   -0.0340 C   0  0  0  0  0  0
    1.4979   -0.0160   -0.0121 C   0  0  0  0  0  0
    2.0915    0.7010   -1.2493 C   0  0  0  0  0  0
    3.4077    1.3727   -0.7667 C   0  0  0  0  0  0
    3.5353    1.0331    0.7390 C   0  0  0  0  0  0
    2.0809    0.7688    1.1816 C   0  0  0  0  0  0
    1.9457    0.0658    2.5313 C   0  0  0  0  0  0
    4.2752    2.0956    1.5497 C   0  0  0  0  0  0
   -0.4829    0.8740   -0.0496 H   0  0  0  0  0  0
   -0.4085   -0.6536    0.8442 H   0  0  0  0  0  0
   -0.3730   -0.6613   -0.9227 H   0  0  0  0  0  0
    1.9177   -1.0329    0.0362 H   0  0  0  0  0  0
    2.2489    0.0068   -2.0810 H   0  0  0  0  0  0
    1.3851    1.4598   -1.6071 H   0  0  0  0  0  0
    4.2852    1.0397   -1.3302 H   0  0  0  0  0  0
    3.3505    2.4603   -0.8947 H   0  0  0  0  0  0
    4.0786    0.0803    0.8364 H   0  0  0  0  0  0
    1.5610    1.7406    1.2339 H   0  0  0  0  0  0
    2.4527   -0.9069    2.5125 H   0  0  0  0  0  0
    0.8965   -0.1096    2.7909 H   0  0  0  0  0  0
    2.3881    0.6571    3.3397 H   0  0  0  0  0  0
    3.7450    3.0548    1.5042 H   0  0  0  0  0  0
    5.2870    2.2570    1.1622 H   0  0  0  0  0  0
    4.3662    1.8123    2.6036 H   0  0  0  0  0  0
  1  2  1  0  0  0
  1  9  1  0  0  0
  1 10  1  0  0  0
  1 11  1  0  0  0
  2  6  1  0  0  0
  2  3  1  0  0  0
  2 12  1  0  0  0
  3  4  1  0  0  0
  3 13  1  0  0  0
  3 14  1  0  0  0
  4  5  1  0  0  0
  4 15  1  0  0  0
  4 16  1  0  0  0
  5  6  1  0  0  0
  5  8  1  0  0  0
  5 17  1  0  0  0
  6  7  1  0  0  0
  6 18  1  0  0  0
  7 19  1  0  0  0
  7 20  1  0  0  0
  7 21  1  0  0  0
  8 22  1  0  0  0
  8 23  1  0  0  0
  8 24  1  0  0  0
M  END
>  <i_m_Spin_multiplicity> (1)
1

>  <s_j_Task> (1)
Single Point

>  <s_j_QM_Method> (1)
DFT(b3lyp-d3)

>  <s_j_QM_Basis> (1)
cc-pvtz(-f)

>  <i_j_Number_of_canonical_orbitals> (1)
325

>  <i_j_Geometry_convergence_category> (1)
0

>  <r_j_Gas_Phase_Energy> (1)
-314.628392517412

>  <r_j_Final_Energy> (1)
-314.628392517412

>  <r_j_HOMO> (1)
-0.297427819068105

>  <r_j_LUMO> (1)
0.0287691332415881

>  <r_j_Polarizability> (1)
93.6441158342016

>  <r_j_QM_Dipole_(debye)> (1)
0.096351159187251

>  <r_j_QM_Dipole_X_(debye)> (1)
0.0450405708988352

>  <r_j_QM_Dipole_Y_(debye)> (1)
-0.0850703104159743

>  <r_j_QM_Dipole_Z_(debye)> (1)
-0.00423498944080965

>  <r_j_Lowest_Frequency_(cm-1)> (1)
120.36166124991

>  <r_j_Highest_Frequency_(cm-1)> (1)
3049.31293038144

>  <r_j_2nd_Lowest_Frequency_(cm-1)> (1)
124.427420235868

>  <i_j_Num_Negative_Frequencies> (1)
0

>  <r_j_Zero_Point_Energy_(kcal/mol)> (1)
140.579814530137

>  <r_j_Entropy_(cal/mol/K)_298.15K_1.00E+00atm> (1)
88.735753519465

>  <r_j_Enthalpy_(kcal/mol)_298.15K_1.00E+00atm> (1)
6.0636847305197

>  <r_j_Free_Energy_(kcal/mol)_298.15K_1.00E+00atm> (1)
-20.3928801813088

>  <r_j_Internal_Energy_(kcal/mol)_298.15K_1.00E+00atm> (1)
5.47119914169243

>  <r_j_Heat_Capacity_(cal/mol/K)_298.15K_1.00E+00atm> (1)
34.6449793315836

>  <r_j_ln(Q)_298.15K_1.00E+00atm> (1)
34.419200341519

>  <r_j_Total_Internal_Energy_(au)_298.15K_1.00E+00atm> (1)
-314.395645410548

>  <r_j_Total_Enthalpy_(au)_298.15K_1.00E+00atm> (1)
-314.394701224656

>  <r_j_Total_Free_Energy_(au)_298.15K_1.00E+00atm> (1)
-314.436862444808

>  <r_lp_tautomer_probability> (1)
1

>  <r_epik_Ionization_Penalty> (1)
  0.0000

>  <r_epik_Ionization_Penalty_Charging> (1)
  0.0000

>  <r_epik_Ionization_Penalty_Neutral> (1)
  0.0000

>  <r_epik_State_Penalty> (1)
  0.0000

>  <r_epik_Charging_Adjusted_Penalty> (1)
0

>  <i_epik_Tot_Q> (1)
0

>  <i_epik_Tot_abs_Q> (1)
0

>  <s_lp_Force_Field> (1)
S-OPLS

>  <r_lp_Energy> (1)
5.18449

>  <b_lp_Chiralities_Consistent> (1)
1

$$$$
