35411_1-Methyl-1-ethylcyclohexane
                    3D
 Schrodinger Suite 2021-3.
 27 27  0  0  1  0            999 V2000
   -0.6879    1.4428    0.0186 C   0  0  0  0  0  0
   -0.0297    0.0575   -0.0093 C   0  0  0  0  0  0
    1.5216   -0.0059   -0.0048 C   0  0  0  0  0  0
    2.0920    0.6542    1.2765 C   0  0  0  0  0  0
    3.6273    0.7443    1.2919 C   0  0  0  0  0  0
    4.1521    1.4711    0.0443 C   0  0  0  0  0  0
    3.6367    0.8118   -1.2440 C   0  0  0  0  0  0
    2.1013    0.7211   -1.2449 C   0  0  0  0  0  0
    1.9015   -1.5021   -0.0433 C   0  0  0  0  0  0
   -1.7782    1.3404    0.0114 H   0  0  0  0  0  0
   -0.4134    2.0479   -0.8508 H   0  0  0  0  0  0
   -0.4214    2.0087    0.9165 H   0  0  0  0  0  0
   -0.3922   -0.5191    0.8531 H   0  0  0  0  0  0
   -0.3852   -0.4799   -0.8994 H   0  0  0  0  0  0
    1.6953    1.6741    1.3589 H   0  0  0  0  0  0
    1.7326    0.1085    2.1590 H   0  0  0  0  0  0
    3.9559    1.2642    2.1999 H   0  0  0  0  0  0
    4.0653   -0.2609    1.3401 H   0  0  0  0  0  0
    3.8116    2.5165    0.0709 H   0  0  0  0  0  0
    5.2483    1.4985    0.0491 H   0  0  0  0  0  0
    3.9719    1.3791   -2.1207 H   0  0  0  0  0  0
    4.0753   -0.1895   -1.3423 H   0  0  0  0  0  0
    1.7486    0.2229   -2.1577 H   0  0  0  0  0  0
    1.7047    1.7439   -1.2761 H   0  0  0  0  0  0
    2.9818   -1.6654   -0.0448 H   0  0  0  0  0  0
    1.4962   -1.9803   -0.9425 H   0  0  0  0  0  0
    1.4917   -2.0270    0.8273 H   0  0  0  0  0  0
  1  2  1  0  0  0
  1 10  1  0  0  0
  1 11  1  0  0  0
  1 12  1  0  0  0
  2  3  1  0  0  0
  2 13  1  0  0  0
  2 14  1  0  0  0
  3  8  1  0  0  0
  3  4  1  0  0  0
  3  9  1  0  0  0
  4  5  1  0  0  0
  4 15  1  0  0  0
  4 16  1  0  0  0
  5  6  1  0  0  0
  5 17  1  0  0  0
  5 18  1  0  0  0
  6  7  1  0  0  0
  6 19  1  0  0  0
  6 20  1  0  0  0
  7  8  1  0  0  0
  7 21  1  0  0  0
  7 22  1  0  0  0
  8 23  1  0  0  0
  8 24  1  0  0  0
  9 25  1  0  0  0
  9 26  1  0  0  0
  9 27  1  0  0  0
M  END
>  <i_m_Spin_multiplicity> (1)
1

>  <s_j_Task> (1)
Single Point

>  <s_j_QM_Method> (1)
DFT(b3lyp-d3)

>  <s_j_QM_Basis> (1)
cc-pvtz(-f)

>  <i_j_Number_of_canonical_orbitals> (1)
365

>  <i_j_Geometry_convergence_category> (1)
3

>  <r_j_Gas_Phase_Energy> (1)
-353.959787976251

>  <r_j_Final_Energy> (1)
-353.959787976251

>  <r_j_HOMO> (1)
-0.287748153895597

>  <r_j_LUMO> (1)
0.0299544261473892

>  <r_j_Polarizability> (1)
104.303864117812

>  <r_j_QM_Dipole_(debye)> (1)
0.0532636690131346

>  <r_j_QM_Dipole_X_(debye)> (1)
0.0352949430074885

>  <r_j_QM_Dipole_Y_(debye)> (1)
0.039876260399396

>  <r_j_QM_Dipole_Z_(debye)> (1)
0.00108133778185084

>  <r_j_Lowest_Frequency_(cm-1)> (1)
131.685171680999

>  <r_j_Highest_Frequency_(cm-1)> (1)
3066.81381374064

>  <r_j_2nd_Lowest_Frequency_(cm-1)> (1)
155.09684618634

>  <i_j_Num_Negative_Frequencies> (1)
0

>  <r_j_Zero_Point_Energy_(kcal/mol)> (1)
159.445751157541

>  <r_j_Entropy_(cal/mol/K)_298.15K_1.00E+00atm> (1)
90.9438752170674

>  <r_j_Enthalpy_(kcal/mol)_298.15K_1.00E+00atm> (1)
6.40356298065711

>  <r_j_Free_Energy_(kcal/mol)_298.15K_1.00E+00atm> (1)
-20.7113534153115

>  <r_j_Internal_Energy_(kcal/mol)_298.15K_1.00E+00atm> (1)
5.81107739182983

>  <r_j_Heat_Capacity_(cal/mol/K)_298.15K_1.00E+00atm> (1)
38.39517105579

>  <r_j_ln(Q)_298.15K_1.00E+00atm> (1)
34.9567209833849

>  <r_j_Total_Internal_Energy_(au)_298.15K_1.00E+00atm> (1)
-353.69643445499

>  <r_j_Total_Enthalpy_(au)_298.15K_1.00E+00atm> (1)
-353.695490269098

>  <r_j_Total_Free_Energy_(au)_298.15K_1.00E+00atm> (1)
-353.738700639128

>  <r_lp_tautomer_probability> (1)
1

>  <r_epik_Ionization_Penalty> (1)
  0.0000

>  <r_epik_Ionization_Penalty_Charging> (1)
  0.0000

>  <r_epik_Ionization_Penalty_Neutral> (1)
  0.0000

>  <r_epik_State_Penalty> (1)
  0.0000

>  <r_epik_Charging_Adjusted_Penalty> (1)
0

>  <i_epik_Tot_Q> (1)
0

>  <i_epik_Tot_abs_Q> (1)
0

>  <s_lp_Force_Field> (1)
S-OPLS

>  <r_lp_Energy> (1)
16.4208

>  <b_lp_Chiralities_Consistent> (1)
1

$$$$
