356_N-octane
                    3D
 Schrodinger Suite 2021-3.
 26 25  0  0  1  0            999 V2000
   -2.6548    2.9430    0.0000 C   0  0  0  0  0  0
   -2.1071    1.5126   -0.0001 C   0  0  0  0  0  0
   -0.5745    1.4561    0.0000 C   0  0  0  0  0  0
   -0.0160    0.0283    0.0000 C   0  0  0  0  0  0
    1.5161   -0.0283    0.0000 C   0  0  0  0  0  0
    2.0745   -1.4561    0.0000 C   0  0  0  0  0  0
    3.6072   -1.5126   -0.0001 C   0  0  0  0  0  0
    4.1547   -2.9431    0.0000 C   0  0  0  0  0  0
   -3.7499    2.9559    0.0000 H   0  0  0  0  0  0
   -2.3141    3.4947   -0.8839 H   0  0  0  0  0  0
   -2.3141    3.4946    0.8841 H   0  0  0  0  0  0
   -2.4887    0.9728    0.8776 H   0  0  0  0  0  0
   -2.4886    0.9730   -0.8779 H   0  0  0  0  0  0
   -0.1916    1.9964   -0.8780 H   0  0  0  0  0  0
   -0.1917    1.9964    0.8781 H   0  0  0  0  0  0
   -0.3993   -0.5113    0.8780 H   0  0  0  0  0  0
   -0.3992   -0.5113   -0.8781 H   0  0  0  0  0  0
    1.8993    0.5113   -0.8781 H   0  0  0  0  0  0
    1.8993    0.5113    0.8781 H   0  0  0  0  0  0
    1.6917   -1.9963    0.8781 H   0  0  0  0  0  0
    1.6916   -1.9964   -0.8779 H   0  0  0  0  0  0
    3.9886   -0.9730   -0.8779 H   0  0  0  0  0  0
    3.9888   -0.9729    0.8776 H   0  0  0  0  0  0
    5.2498   -2.9560   -0.0001 H   0  0  0  0  0  0
    3.8139   -3.4948   -0.8838 H   0  0  0  0  0  0
    3.8141   -3.4946    0.8841 H   0  0  0  0  0  0
  1  2  1  0  0  0
  1  9  1  0  0  0
  1 10  1  0  0  0
  1 11  1  0  0  0
  2  3  1  0  0  0
  2 12  1  0  0  0
  2 13  1  0  0  0
  3  4  1  0  0  0
  3 14  1  0  0  0
  3 15  1  0  0  0
  4  5  1  0  0  0
  4 16  1  0  0  0
  4 17  1  0  0  0
  5  6  1  0  0  0
  5 18  1  0  0  0
  5 19  1  0  0  0
  6  7  1  0  0  0
  6 20  1  0  0  0
  6 21  1  0  0  0
  7  8  1  0  0  0
  7 22  1  0  0  0
  7 23  1  0  0  0
  8 24  1  0  0  0
  8 25  1  0  0  0
  8 26  1  0  0  0
M  END
>  <i_m_Spin_multiplicity> (1)
1

>  <s_j_Task> (1)
Single Point

>  <s_j_QM_Method> (1)
DFT(b3lyp-d3)

>  <s_j_QM_Basis> (1)
cc-pvtz(-f)

>  <i_j_Number_of_canonical_orbitals> (1)
344

>  <i_j_Geometry_convergence_category> (1)
0

>  <r_j_Gas_Phase_Energy> (1)
-315.841152269302

>  <r_j_Final_Energy> (1)
-315.841152269302

>  <r_j_HOMO> (1)
-0.302399008098884

>  <r_j_LUMO> (1)
0.0262687024445537

>  <r_j_Polarizability> (1)
100.858065383543

>  <r_j_QM_Dipole_(debye)> (1)
0.000231801396526104

>  <r_j_QM_Dipole_X_(debye)> (1)
3.32202299741593e-06

>  <r_j_QM_Dipole_Y_(debye)> (1)
-0.000183930305038257

>  <r_j_QM_Dipole_Z_(debye)> (1)
-0.000141033664361351

>  <r_j_Lowest_Frequency_(cm-1)> (1)
71.1836472121104

>  <r_j_Highest_Frequency_(cm-1)> (1)
3044.75003164116

>  <r_j_2nd_Lowest_Frequency_(cm-1)> (1)
95.1115357347376

>  <i_j_Num_Negative_Frequencies> (1)
0

>  <r_j_Zero_Point_Energy_(kcal/mol)> (1)
154.027728905248

>  <r_j_Entropy_(cal/mol/K)_298.15K_1.00E+00atm> (1)
96.1777656619166

>  <r_j_Enthalpy_(kcal/mol)_298.15K_1.00E+00atm> (1)
7.09335570780276

>  <r_j_Free_Energy_(kcal/mol)_298.15K_1.00E+00atm> (1)
-21.5820451242977

>  <r_j_Internal_Energy_(kcal/mol)_298.15K_1.00E+00atm> (1)
6.50087011897549

>  <r_j_Heat_Capacity_(cal/mol/K)_298.15K_1.00E+00atm> (1)
38.1629042318493

>  <r_j_ln(Q)_298.15K_1.00E+00atm> (1)
36.4262785986334

>  <r_j_Total_Internal_Energy_(au)_298.15K_1.00E+00atm> (1)
-315.585333661458

>  <r_j_Total_Enthalpy_(au)_298.15K_1.00E+00atm> (1)
-315.584389475566

>  <r_j_Total_Free_Energy_(au)_298.15K_1.00E+00atm> (1)
-315.630086635853

>  <r_lp_tautomer_probability> (1)
1

>  <r_epik_Ionization_Penalty> (1)
  0.0000

>  <r_epik_Ionization_Penalty_Charging> (1)
  0.0000

>  <r_epik_Ionization_Penalty_Neutral> (1)
  0.0000

>  <r_epik_State_Penalty> (1)
  0.0000

>  <r_epik_Charging_Adjusted_Penalty> (1)
0

>  <i_epik_Tot_Q> (1)
0

>  <i_epik_Tot_abs_Q> (1)
0

>  <s_lp_Force_Field> (1)
S-OPLS

>  <r_lp_Energy> (1)
2.979141

>  <b_lp_Chiralities_Consistent> (1)
1

$$$$
