36231_3,3,4,4,5,5-Hexachlorobiphenyl
                    3D
 Schrodinger Suite 2021-3.
 22 23  0  0  1  0            999 V2000
   -0.7061   -1.2007    0.0832 C   0  0  0  0  0  0
    0.0080    0.0001   -0.0007 C   0  0  0  0  0  0
   -0.7062    1.2008   -0.0845 C   0  0  0  0  0  0
   -2.0983    1.2015   -0.0816 C   0  0  0  0  0  0
   -2.8236    0.0001    0.0002 C   0  0  0  0  0  0
   -2.0983   -1.2014    0.0813 C   0  0  0  0  0  0
   -2.9180   -2.7405    0.1977 Cl  0  0  0  0  0  0
   -4.5607    0.0001    0.0009 Cl  0  0  0  0  0  0
   -2.9182    2.7406   -0.1975 Cl  0  0  0  0  0  0
    1.4920    0.0000   -0.0006 C   0  0  0  0  0  0
    2.2060    0.9979    0.6727 C   0  0  0  0  0  0
    3.5981    0.9997    0.6710 C   0  0  0  0  0  0
    4.3235   -0.0001    0.0000 C   0  0  0  0  0  0
    3.5984   -0.9998   -0.6714 C   0  0  0  0  0  0
    2.2062   -0.9979   -0.6736 C   0  0  0  0  0  0
    4.4185   -2.2748   -1.5411 Cl  0  0  0  0  0  0
    6.0606   -0.0001    0.0004 Cl  0  0  0  0  0  0
    4.4179    2.2747    1.5411 Cl  0  0  0  0  0  0
   -0.1853   -2.1464    0.1764 H   0  0  0  0  0  0
   -0.1855    2.1465   -0.1784 H   0  0  0  0  0  0
    1.6853    1.7700    1.2267 H   0  0  0  0  0  0
    1.6857   -1.7700   -1.2278 H   0  0  0  0  0  0
  1  6  1  0  0  0
  1  2  2  0  0  0
  1 19  1  0  0  0
  2  3  1  0  0  0
  2 10  1  0  0  0
  3  4  2  0  0  0
  3 20  1  0  0  0
  4  5  1  0  0  0
  4  9  1  0  0  0
  5  6  2  0  0  0
  5  8  1  0  0  0
  6  7  1  0  0  0
 10 15  1  0  0  0
 10 11  2  0  0  0
 11 12  1  0  0  0
 11 21  1  0  0  0
 12 13  2  0  0  0
 12 18  1  0  0  0
 13 14  1  0  0  0
 13 17  1  0  0  0
 14 15  2  0  0  0
 14 16  1  0  0  0
 15 22  1  0  0  0
M  END
>  <i_m_Spin_multiplicity> (1)
1

>  <s_j_Task> (1)
Single Point

>  <s_j_QM_Method> (1)
DFT(b3lyp-d3)

>  <s_j_QM_Basis> (1)
cc-pvtz(-f)

>  <i_j_Number_of_canonical_orbitals> (1)
463

>  <i_j_Geometry_convergence_category> (1)
0

>  <r_j_Gas_Phase_Energy> (1)
-3221.22869908534

>  <r_j_Final_Energy> (1)
-3221.22869908534

>  <r_j_HOMO> (1)
-0.25745351627903

>  <r_j_LUMO> (1)
-0.0796400063024907

>  <r_j_Polarizability> (1)
225.078096393255

>  <r_j_QM_Dipole_(debye)> (1)
0.00187651211201021

>  <r_j_QM_Dipole_X_(debye)> (1)
-0.00124432455773793

>  <r_j_QM_Dipole_Y_(debye)> (1)
-0.000628267198378923

>  <r_j_QM_Dipole_Z_(debye)> (1)
-0.00125627800624401

>  <r_j_Lowest_Frequency_(cm-1)> (1)
40.9999267877849

>  <r_j_Highest_Frequency_(cm-1)> (1)
3167.50754153873

>  <r_j_2nd_Lowest_Frequency_(cm-1)> (1)
53.5738854616219

>  <i_j_Num_Negative_Frequencies> (1)
0

>  <r_j_Zero_Point_Energy_(kcal/mol)> (1)
77.3380178750106

>  <r_j_Entropy_(cal/mol/K)_298.15K_1.00E+00atm> (1)
128.261900503501

>  <r_j_Enthalpy_(kcal/mol)_298.15K_1.00E+00atm> (1)
10.5428007938679

>  <r_j_Free_Energy_(kcal/mol)_298.15K_1.00E+00atm> (1)
-27.698484841251

>  <r_j_Internal_Energy_(kcal/mol)_298.15K_1.00E+00atm> (1)
9.95031520504062

>  <r_j_Heat_Capacity_(cal/mol/K)_298.15K_1.00E+00atm> (1)
58.8029450932419

>  <r_j_ln(Q)_298.15K_1.00E+00atm> (1)
46.7496346975721

>  <r_j_Total_Internal_Energy_(au)_298.15K_1.00E+00atm> (1)
-3221.08959627136

>  <r_j_Total_Enthalpy_(au)_298.15K_1.00E+00atm> (1)
-3221.08865208547

>  <r_j_Total_Free_Energy_(au)_298.15K_1.00E+00atm> (1)
-3221.14959345363

>  <r_lp_tautomer_probability> (1)
1

>  <r_epik_Ionization_Penalty> (1)
  0.0000

>  <r_epik_Ionization_Penalty_Charging> (1)
  0.0000

>  <r_epik_Ionization_Penalty_Neutral> (1)
  0.0000

>  <r_epik_State_Penalty> (1)
  0.0000

>  <r_epik_Charging_Adjusted_Penalty> (1)
0

>  <i_epik_Tot_Q> (1)
0

>  <i_epik_Tot_abs_Q> (1)
0

>  <s_lp_Force_Field> (1)
S-OPLS

>  <r_lp_Energy> (1)
24.5416

>  <b_lp_Chiralities_Consistent> (1)
1

$$$$
