3776_Isopropyl alcohol
                    3D
 Schrodinger Suite 2021-3.
 12 11  0  0  1  0            999 V2000
   -0.0291   -0.0119    0.0345 C   0  0  0  0  0  0
    1.4978    0.0032   -0.0017 C   0  0  0  0  0  0
    2.0433    0.7209   -1.2346 C   0  0  0  0  0  0
    1.9664   -1.3560   -0.0216 O   0  0  0  0  0  0
   -0.4375    1.0044    0.0323 H   0  0  0  0  0  0
   -0.3867   -0.5317    0.9281 H   0  0  0  0  0  0
   -0.4133   -0.5427   -0.8427 H   0  0  0  0  0  0
    1.8689    0.5150    0.8997 H   0  0  0  0  0  0
    1.6986    1.7597   -1.2758 H   0  0  0  0  0  0
    1.7053    0.2066   -2.1402 H   0  0  0  0  0  0
    3.1372    0.7143   -1.2300 H   0  0  0  0  0  0
    2.5004   -1.5055    0.7655 H   0  0  0  0  0  0
  1  2  1  0  0  0
  1  5  1  0  0  0
  1  6  1  0  0  0
  1  7  1  0  0  0
  2  3  1  0  0  0
  2  4  1  0  0  0
  2  8  1  0  0  0
  3  9  1  0  0  0
  3 10  1  0  0  0
  3 11  1  0  0  0
  4 12  1  0  0  0
M  END
>  <i_m_Spin_multiplicity> (1)
1

>  <s_j_Task> (1)
Single Point

>  <s_j_QM_Method> (1)
DFT(b3lyp-d3)

>  <s_j_QM_Basis> (1)
cc-pvtz(-f)

>  <i_j_Number_of_canonical_orbitals> (1)
164

>  <i_j_Geometry_convergence_category> (1)
0

>  <r_j_Gas_Phase_Energy> (1)
-194.438829762417

>  <r_j_Final_Energy> (1)
-194.438829762417

>  <r_j_HOMO> (1)
-0.274461396981066

>  <r_j_LUMO> (1)
0.0170288173793325

>  <r_j_Polarizability> (1)
43.2160343171653

>  <r_j_QM_Dipole_(debye)> (1)
1.59252273354389

>  <r_j_QM_Dipole_X_(debye)> (1)
0.37447699977481

>  <r_j_QM_Dipole_Y_(debye)> (1)
0.993281201410542

>  <r_j_QM_Dipole_Z_(debye)> (1)
1.18713440200265

>  <r_j_Lowest_Frequency_(cm-1)> (1)
-153.820827767515

>  <r_j_Highest_Frequency_(cm-1)> (1)
3812.3734279655

>  <r_j_2nd_Lowest_Frequency_(cm-1)> (1)
288.692586479873

>  <i_j_Num_Negative_Frequencies> (1)
1

>  <r_j_Zero_Point_Energy_(kcal/mol)> (1)
67.1065661503194

>  <r_j_Entropy_(cal/mol/K)_298.15K_1.00E+00atm> (1)
68.8374876863642

>  <r_j_Enthalpy_(kcal/mol)_298.15K_1.00E+00atm> (1)
3.62915457298984

>  <r_j_Free_Energy_(kcal/mol)_298.15K_1.00E+00atm> (1)
-16.8947423806996

>  <r_j_Internal_Energy_(kcal/mol)_298.15K_1.00E+00atm> (1)
3.03666898416257

>  <r_j_Heat_Capacity_(cal/mol/K)_298.15K_1.00E+00atm> (1)
17.0033557500786

>  <r_j_ln(Q)_298.15K_1.00E+00atm> (1)
28.5150266931217

>  <r_j_Total_Internal_Energy_(au)_298.15K_1.00E+00atm> (1)
-194.327049401342

>  <r_j_Total_Enthalpy_(au)_298.15K_1.00E+00atm> (1)
-194.32610521545

>  <r_j_Total_Free_Energy_(au)_298.15K_1.00E+00atm> (1)
-194.358812127353

>  <r_lp_tautomer_probability> (1)
1

>  <r_epik_Ionization_Penalty> (1)
  0.0000

>  <r_epik_Ionization_Penalty_Charging> (1)
  0.0000

>  <r_epik_Ionization_Penalty_Neutral> (1)
  0.0000

>  <r_epik_State_Penalty> (1)
  0.0000

>  <r_epik_Charging_Adjusted_Penalty> (1)
0

>  <i_epik_Tot_Q> (1)
0

>  <i_epik_Tot_abs_Q> (1)
0

>  <s_lp_Force_Field> (1)
S-OPLS

>  <r_lp_Energy> (1)
-0.512382

>  <b_lp_Chiralities_Consistent> (1)
1

$$$$
