37803_2,2',5-Trichlorobiphenyl
                    3D
 Schrodinger Suite 2021-3.
 22 23  0  0  1  0            999 V2000
   -2.0737    1.1879   -0.2224 C   0  0  0  0  0  0
   -2.7979    0.0053   -0.0794 C   0  0  0  0  0  0
   -2.1316   -1.2066    0.0925 C   0  0  0  0  0  0
   -0.7382   -1.2266    0.1261 C   0  0  0  0  0  0
    0.0122   -0.0493   -0.0051 C   0  0  0  0  0  0
   -0.6820    1.1540   -0.1864 C   0  0  0  0  0  0
    1.5015   -0.0395    0.0116 C   0  0  0  0  0  0
    2.2490   -0.1549    1.1927 C   0  0  0  0  0  0
    3.6426   -0.1234    1.1712 C   0  0  0  0  0  0
    4.3189    0.0310   -0.0364 C   0  0  0  0  0  0
    3.5836    0.1573   -1.2123 C   0  0  0  0  0  0
    2.1925    0.1241   -1.1951 C   0  0  0  0  0  0
    4.4225    0.3606   -2.7432 Cl  0  0  0  0  0  0
    1.4395   -0.3177    2.7420 Cl  0  0  0  0  0  0
    0.0723   -2.7760    0.3125 Cl  0  0  0  0  0  0
   -2.5887    2.1334   -0.3594 H   0  0  0  0  0  0
   -3.8832    0.0196   -0.1048 H   0  0  0  0  0  0
   -2.6811   -2.1355    0.1955 H   0  0  0  0  0  0
   -0.1085    2.0701   -0.2905 H   0  0  0  0  0  0
    4.1947   -0.2144    2.0997 H   0  0  0  0  0  0
    5.4022    0.0567   -0.0623 H   0  0  0  0  0  0
    1.6334    0.2156   -2.1192 H   0  0  0  0  0  0
  1  6  1  0  0  0
  1  2  2  0  0  0
  1 16  1  0  0  0
  2  3  1  0  0  0
  2 17  1  0  0  0
  3  4  2  0  0  0
  3 18  1  0  0  0
  4  5  1  0  0  0
  4 15  1  0  0  0
  5  6  2  0  0  0
  5  7  1  0  0  0
  6 19  1  0  0  0
  7 12  1  0  0  0
  7  8  2  0  0  0
  8  9  1  0  0  0
  8 14  1  0  0  0
  9 10  2  0  0  0
  9 20  1  0  0  0
 10 11  1  0  0  0
 10 21  1  0  0  0
 11 12  2  0  0  0
 11 13  1  0  0  0
 12 22  1  0  0  0
M  END
>  <i_m_Spin_multiplicity> (1)
1

>  <s_j_Task> (1)
Single Point

>  <s_j_QM_Method> (1)
DFT(b3lyp-d3)

>  <s_j_QM_Basis> (1)
cc-pvtz(-f)

>  <i_j_Number_of_canonical_orbitals> (1)
410

>  <i_j_Geometry_convergence_category> (1)
0

>  <r_j_Gas_Phase_Energy> (1)
-1842.35290381701

>  <r_j_Final_Energy> (1)
-1842.35290381701

>  <r_j_HOMO> (1)
-0.250956065303394

>  <r_j_LUMO> (1)
-0.0455206480505992

>  <r_j_Polarizability> (1)
169.337927191802

>  <r_j_QM_Dipole_(debye)> (1)
1.6758478009228

>  <r_j_QM_Dipole_X_(debye)> (1)
-1.07438664534926

>  <r_j_QM_Dipole_Y_(debye)> (1)
1.28610502147547

>  <r_j_QM_Dipole_Z_(debye)> (1)
-0.00964685899710004

>  <r_j_Lowest_Frequency_(cm-1)> (1)
47.7164545723917

>  <r_j_Highest_Frequency_(cm-1)> (1)
3169.63947200352

>  <r_j_2nd_Lowest_Frequency_(cm-1)> (1)
82.3449419859222

>  <i_j_Num_Negative_Frequencies> (1)
0

>  <r_j_Zero_Point_Energy_(kcal/mol)> (1)
95.3051737718892

>  <r_j_Entropy_(cal/mol/K)_298.15K_1.00E+00atm> (1)
110.778958771686

>  <r_j_Enthalpy_(kcal/mol)_298.15K_1.00E+00atm> (1)
8.30966336737286

>  <r_j_Free_Energy_(kcal/mol)_298.15K_1.00E+00atm> (1)
-24.7190831904053

>  <r_j_Internal_Energy_(kcal/mol)_298.15K_1.00E+00atm> (1)
7.71717777854559

>  <r_j_Heat_Capacity_(cal/mol/K)_298.15K_1.00E+00atm> (1)
47.4971991367068

>  <r_j_ln(Q)_298.15K_1.00E+00atm> (1)
41.7209863945088

>  <r_j_Total_Internal_Energy_(au)_298.15K_1.00E+00atm> (1)
-1842.1887272484

>  <r_j_Total_Enthalpy_(au)_298.15K_1.00E+00atm> (1)
-1842.18778306251

>  <r_j_Total_Free_Energy_(au)_298.15K_1.00E+00atm> (1)
-1842.24041772085

>  <r_lp_tautomer_probability> (1)
1

>  <r_epik_Ionization_Penalty> (1)
  0.0000

>  <r_epik_Ionization_Penalty_Charging> (1)
  0.0000

>  <r_epik_Ionization_Penalty_Neutral> (1)
  0.0000

>  <r_epik_State_Penalty> (1)
  0.0000

>  <r_epik_Charging_Adjusted_Penalty> (1)
0

>  <i_epik_Tot_Q> (1)
0

>  <i_epik_Tot_abs_Q> (1)
0

>  <s_lp_Force_Field> (1)
S-OPLS

>  <r_lp_Energy> (1)
24.4848

>  <b_lp_Chiralities_Consistent> (1)
1

$$$$
