379_Octanoic acid
                    3D
 Schrodinger Suite 2021-3.
 25 24  0  0  1  0            999 V2000
   -2.6396    2.9450    0.0058 C   0  0  0  0  0  0
   -2.0897    1.5162   -0.0531 C   0  0  0  0  0  0
   -0.5598    1.4523    0.0263 C   0  0  0  0  0  0
    0.0038    0.0278   -0.0302 C   0  0  0  0  0  0
    1.5343   -0.0389    0.0483 C   0  0  0  0  0  0
    2.0953   -1.4650   -0.0067 C   0  0  0  0  0  0
    3.6192   -1.5444    0.0688 C   0  0  0  0  0  0
    4.2037   -3.0094   -0.0058 C   0  0  0  0  0  0
    5.4524   -3.0741    0.1009 O   0  0  0  0  0  0
    3.3572   -3.9267   -0.1653 O   0  5  0  0  0  0
   -3.7340    2.9651   -0.0529 H   0  0  0  0  0  0
   -2.2498    3.5504   -0.8214 H   0  0  0  0  0  0
   -2.3463    3.4406    0.9391 H   0  0  0  0  0  0
   -2.5188    0.9234    0.7666 H   0  0  0  0  0  0
   -2.4235    1.0321   -0.9815 H   0  0  0  0  0  0
   -0.1306    2.0466   -0.7941 H   0  0  0  0  0  0
   -0.2260    1.9394    0.9547 H   0  0  0  0  0  0
   -0.4264   -0.5651    0.7904 H   0  0  0  0  0  0
   -0.3319   -0.4586   -0.9579 H   0  0  0  0  0  0
    1.9617    0.5570   -0.7731 H   0  0  0  0  0  0
    1.8674    0.4532    0.9754 H   0  0  0  0  0  0
    1.6709   -2.0670    0.8072 H   0  0  0  0  0  0
    1.7653   -1.9665   -0.9253 H   0  0  0  0  0  0
    4.0735   -0.9593   -0.7457 H   0  0  0  0  0  0
    3.9842   -1.0812    0.9979 H   0  0  0  0  0  0
  1  2  1  0  0  0
  1 11  1  0  0  0
  1 12  1  0  0  0
  1 13  1  0  0  0
  2  3  1  0  0  0
  2 14  1  0  0  0
  2 15  1  0  0  0
  3  4  1  0  0  0
  3 16  1  0  0  0
  3 17  1  0  0  0
  4  5  1  0  0  0
  4 18  1  0  0  0
  4 19  1  0  0  0
  5  6  1  0  0  0
  5 20  1  0  0  0
  5 21  1  0  0  0
  6  7  1  0  0  0
  6 22  1  0  0  0
  6 23  1  0  0  0
  7  8  1  0  0  0
  7 24  1  0  0  0
  7 25  1  0  0  0
  8  9  2  0  0  0
  8 10  1  0  0  0
M  END
>  <i_m_Spin_multiplicity> (1)
1

>  <s_j_Task> (1)
Single Point

>  <s_j_QM_Method> (1)
DFT(b3lyp-d3)

>  <s_j_QM_Basis> (1)
cc-pvtz(-f)

>  <i_j_Number_of_canonical_orbitals> (1)
363

>  <i_j_Geometry_convergence_category> (1)
0

>  <r_j_Gas_Phase_Energy> (1)
-464.583873902761

>  <r_j_Final_Energy> (1)
-464.583873902761

>  <r_j_HOMO> (1)
-0.043416803729694

>  <r_j_LUMO> (1)
0.11718949745005

>  <r_j_Polarizability> (1)
109.574771982161

>  <r_j_QM_Dipole_(debye)> (1)
16.8204438230124

>  <r_j_QM_Dipole_X_(debye)> (1)
-12.2141569542492

>  <r_j_QM_Dipole_Y_(debye)> (1)
11.564149487353

>  <r_j_QM_Dipole_Z_(debye)> (1)
0.11021313094645

>  <r_j_Lowest_Frequency_(cm-1)> (1)
56.4318095919766

>  <r_j_Highest_Frequency_(cm-1)> (1)
3032.78952724639

>  <r_j_2nd_Lowest_Frequency_(cm-1)> (1)
75.0867084611516

>  <i_j_Num_Negative_Frequencies> (1)
0

>  <r_j_Zero_Point_Energy_(kcal/mol)> (1)
137.036388871241

>  <r_j_Entropy_(cal/mol/K)_298.15K_1.00E+00atm> (1)
104.759272920864

>  <r_j_Enthalpy_(kcal/mol)_298.15K_1.00E+00atm> (1)
7.78244593358283

>  <r_j_Free_Energy_(kcal/mol)_298.15K_1.00E+00atm> (1)
-23.4515312877728

>  <r_j_Internal_Energy_(kcal/mol)_298.15K_1.00E+00atm> (1)
7.18996034475555

>  <r_j_Heat_Capacity_(cal/mol/K)_298.15K_1.00E+00atm> (1)
41.5409046581319

>  <r_j_ln(Q)_298.15K_1.00E+00atm> (1)
39.5816062533962

>  <r_j_Total_Internal_Energy_(au)_298.15K_1.00E+00atm> (1)
-464.354034583817

>  <r_j_Total_Enthalpy_(au)_298.15K_1.00E+00atm> (1)
-464.353090397924

>  <r_j_Total_Free_Energy_(au)_298.15K_1.00E+00atm> (1)
-464.40286490925

>  <r_epik_Ionization_Penalty> (1)
  0.0049

>  <r_epik_Ionization_Penalty_Charging> (1)
  0.0049

>  <r_epik_Ionization_Penalty_Neutral> (1)
  0.0000

>  <r_epik_State_Penalty> (1)
  0.0035

>  <r_epik_Charging_Adjusted_Penalty> (1)
0.00839021531719891

>  <i_epik_Tot_Q> (1)
-1

>  <i_epik_Tot_abs_Q> (1)
1

>  <s_lp_Force_Field> (1)
S-OPLS

>  <r_lp_Energy> (1)
6.299324

>  <b_lp_Chiralities_Consistent> (1)
1

$$$$
