38307_Bis(2-chloroisopropyl) ether
                    3D
 Schrodinger Suite 2021-3.
 21 20  0  0  1  0            999 V2000
   -0.8843   -0.8678    0.9447 C   0  0  0  0  0  0
   -0.0956    0.0184   -0.0110 C   0  0  0  0  0  0
   -0.3291    1.5010    0.2458 C   0  0  0  0  0  0
    1.2982   -0.1282    0.0004 O   0  0  0  0  0  0
    2.0200   -1.3295    0.0113 C   0  0  0  0  0  0
    1.5498   -2.4183   -0.9449 C   0  0  0  0  0  0
    3.4622   -0.9144   -0.2459 C   0  0  0  0  0  0
    1.9901   -2.0646    1.7497 Cl  0  0  0  0  0  0
   -0.7482   -0.3195   -1.7498 Cl  0  0  0  0  0  0
   -0.5426   -0.6784    1.9649 H   0  0  0  0  0  0
   -0.7608   -1.9282    0.7339 H   0  0  0  0  0  0
   -1.9431   -0.6159    0.8624 H   0  0  0  0  0  0
    0.0190    1.7376    1.2559 H   0  0  0  0  0  0
   -1.3901    1.7401    0.1610 H   0  0  0  0  0  0
    0.2351    2.0973   -0.4726 H   0  0  0  0  0  0
    1.5766   -2.0279   -1.9649 H   0  0  0  0  0  0
    0.5366   -2.7547   -0.7339 H   0  0  0  0  0  0
    2.2257   -3.2715   -0.8634 H   0  0  0  0  0  0
    3.5292   -0.4987   -1.2559 H   0  0  0  0  0  0
    4.1275   -1.7749   -0.1618 H   0  0  0  0  0  0
    3.7646   -0.1513    0.4726 H   0  0  0  0  0  0
  1  2  1  0  0  0
  1 10  1  0  0  0
  1 11  1  0  0  0
  1 12  1  0  0  0
  2  3  1  0  0  0
  2  4  1  0  0  0
  2  9  1  0  0  0
  3 13  1  0  0  0
  3 14  1  0  0  0
  3 15  1  0  0  0
  4  5  1  0  0  0
  5  6  1  0  0  0
  5  7  1  0  0  0
  5  8  1  0  0  0
  6 16  1  0  0  0
  6 17  1  0  0  0
  6 18  1  0  0  0
  7 19  1  0  0  0
  7 20  1  0  0  0
  7 21  1  0  0  0
M  END
>  <i_m_Spin_multiplicity> (1)
1

>  <s_j_Task> (1)
Single Point

>  <s_j_QM_Method> (1)
DFT(b3lyp-d3)

>  <s_j_QM_Basis> (1)
cc-pvtz(-f)

>  <i_j_Number_of_canonical_orbitals> (1)
323

>  <i_j_Geometry_convergence_category> (1)
1

>  <r_j_Gas_Phase_Energy> (1)
-1231.6992127993

>  <r_j_Final_Energy> (1)
-1231.6992127993

>  <r_j_HOMO> (1)
-0.294518164492142

>  <r_j_LUMO> (1)
-0.0193040621103954

>  <r_j_Polarizability> (1)
102.715436525028

>  <r_j_QM_Dipole_(debye)> (1)
0.487877815483747

>  <r_j_QM_Dipole_X_(debye)> (1)
0.260990616270088

>  <r_j_QM_Dipole_Y_(debye)> (1)
0.412199782678286

>  <r_j_QM_Dipole_Z_(debye)> (1)
-1.48366706562813e-05

>  <r_j_Lowest_Frequency_(cm-1)> (1)
81.7465990888709

>  <r_j_Highest_Frequency_(cm-1)> (1)
3126.22035924596

>  <r_j_2nd_Lowest_Frequency_(cm-1)> (1)
140.073773468379

>  <i_j_Num_Negative_Frequencies> (1)
0

>  <r_j_Zero_Point_Energy_(kcal/mol)> (1)
108.941198663804

>  <r_j_Entropy_(cal/mol/K)_298.15K_1.00E+00atm> (1)
98.3385815058331

>  <r_j_Enthalpy_(kcal/mol)_298.15K_1.00E+00atm> (1)
7.25354695941646

>  <r_j_Free_Energy_(kcal/mol)_298.15K_1.00E+00atm> (1)
-22.0661011165477

>  <r_j_Internal_Energy_(kcal/mol)_298.15K_1.00E+00atm> (1)
6.66106137058918

>  <r_j_Heat_Capacity_(cal/mol/K)_298.15K_1.00E+00atm> (1)
41.1029748058277

>  <r_j_ln(Q)_298.15K_1.00E+00atm> (1)
37.2432706088663

>  <r_j_Total_Internal_Energy_(au)_298.15K_1.00E+00atm> (1)
-1231.51498887032

>  <r_j_Total_Enthalpy_(au)_298.15K_1.00E+00atm> (1)
-1231.51404468443

>  <r_j_Total_Free_Energy_(au)_298.15K_1.00E+00atm> (1)
-1231.56076851805

>  <r_lp_tautomer_probability> (1)
1

>  <r_epik_Ionization_Penalty> (1)
  0.0000

>  <r_epik_Ionization_Penalty_Charging> (1)
  0.0000

>  <r_epik_Ionization_Penalty_Neutral> (1)
  0.0000

>  <r_epik_State_Penalty> (1)
  0.0000

>  <r_epik_Charging_Adjusted_Penalty> (1)
0

>  <i_epik_Tot_Q> (1)
0

>  <i_epik_Tot_abs_Q> (1)
0

>  <s_lp_Force_Field> (1)
S-OPLS

>  <r_lp_Energy> (1)
4.59617

>  <b_lp_Chiralities_Consistent> (1)
1

$$$$
