38875_2,2',3,5'-Tetrachlorobiphenyl
                    3D
 Schrodinger Suite 2021-3.
 22 23  0  0  1  0            999 V2000
   -2.0660    1.2053   -0.2164 C   0  0  0  0  0  0
   -0.6744    1.1713   -0.1818 C   0  0  0  0  0  0
    0.0094   -0.0386   -0.0335 C   0  0  0  0  0  0
   -0.7254   -1.2329    0.0674 C   0  0  0  0  0  0
   -2.1269   -1.1938    0.0343 C   0  0  0  0  0  0
   -2.7929    0.0247   -0.1059 C   0  0  0  0  0  0
   -3.0852   -2.6529    0.1572 Cl  0  0  0  0  0  0
    0.1226   -2.7532    0.2178 Cl  0  0  0  0  0  0
    1.5005   -0.0333   -0.0156 C   0  0  0  0  0  0
    2.2427   -0.1307    1.1698 C   0  0  0  0  0  0
    3.6362   -0.1059    1.1521 C   0  0  0  0  0  0
    4.3163    0.0243   -0.0560 C   0  0  0  0  0  0
    3.5854    0.1329   -1.2369 C   0  0  0  0  0  0
    2.1938    0.1064   -1.2236 C   0  0  0  0  0  0
    4.4300    0.3049   -2.7680 Cl  0  0  0  0  0  0
    1.4245   -0.2751    2.7160 Cl  0  0  0  0  0  0
   -2.5868    2.1507   -0.3277 H   0  0  0  0  0  0
   -0.0986    2.0877   -0.2613 H   0  0  0  0  0  0
   -3.8767    0.0316   -0.1291 H   0  0  0  0  0  0
    4.1852   -0.1857    2.0834 H   0  0  0  0  0  0
    5.3998    0.0434   -0.0797 H   0  0  0  0  0  0
    1.6381    0.1838   -2.1510 H   0  0  0  0  0  0
  1  6  1  0  0  0
  1  2  2  0  0  0
  1 17  1  0  0  0
  2  3  1  0  0  0
  2 18  1  0  0  0
  3  4  2  0  0  0
  3  9  1  0  0  0
  4  5  1  0  0  0
  4  8  1  0  0  0
  5  6  2  0  0  0
  5  7  1  0  0  0
  6 19  1  0  0  0
  9 14  1  0  0  0
  9 10  2  0  0  0
 10 11  1  0  0  0
 10 16  1  0  0  0
 11 12  2  0  0  0
 11 20  1  0  0  0
 12 13  1  0  0  0
 12 21  1  0  0  0
 13 14  2  0  0  0
 13 15  1  0  0  0
 14 22  1  0  0  0
M  END
>  <i_m_Spin_multiplicity> (1)
1

>  <s_j_Task> (1)
Single Point

>  <s_j_QM_Method> (1)
DFT(b3lyp-d3)

>  <s_j_QM_Basis> (1)
cc-pvtz(-f)

>  <i_j_Number_of_canonical_orbitals> (1)
429

>  <i_j_Geometry_convergence_category> (1)
0

>  <r_j_Gas_Phase_Energy> (1)
-2301.97875659077

>  <r_j_Final_Energy> (1)
-2301.97875659077

>  <r_j_HOMO> (1)
-0.254718259992151

>  <r_j_LUMO> (1)
-0.0508194132281755

>  <r_j_Polarizability> (1)
183.202624921553

>  <r_j_QM_Dipole_(debye)> (1)
2.25416977293059

>  <r_j_QM_Dipole_X_(debye)> (1)
-0.0163582777290255

>  <r_j_QM_Dipole_Y_(debye)> (1)
2.25352587535803

>  <r_j_QM_Dipole_Z_(debye)> (1)
-0.051331287101663

>  <r_j_Lowest_Frequency_(cm-1)> (1)
43.550813578245

>  <r_j_Highest_Frequency_(cm-1)> (1)
3169.8311198036

>  <r_j_2nd_Lowest_Frequency_(cm-1)> (1)
58.7079233282467

>  <i_j_Num_Negative_Frequencies> (1)
0

>  <r_j_Zero_Point_Energy_(kcal/mol)> (1)
89.2901442899424

>  <r_j_Entropy_(cal/mol/K)_298.15K_1.00E+00atm> (1)
116.553927732347

>  <r_j_Enthalpy_(kcal/mol)_298.15K_1.00E+00atm> (1)
9.05336742447701

>  <r_j_Free_Energy_(kcal/mol)_298.15K_1.00E+00atm> (1)
-25.6971861289223

>  <r_j_Internal_Energy_(kcal/mol)_298.15K_1.00E+00atm> (1)
8.46088183564973

>  <r_j_Heat_Capacity_(cal/mol/K)_298.15K_1.00E+00atm> (1)
51.2981822133059

>  <r_j_ln(Q)_298.15K_1.00E+00atm> (1)
43.3718331947712

>  <r_j_Total_Internal_Energy_(au)_298.15K_1.00E+00atm> (1)
-2301.822980414

>  <r_j_Total_Enthalpy_(au)_298.15K_1.00E+00atm> (1)
-2301.8220362281

>  <r_j_Total_Free_Energy_(au)_298.15K_1.00E+00atm> (1)
-2301.87741476056

>  <r_lp_tautomer_probability> (1)
1

>  <r_epik_Ionization_Penalty> (1)
  0.0000

>  <r_epik_Ionization_Penalty_Charging> (1)
  0.0000

>  <r_epik_Ionization_Penalty_Neutral> (1)
  0.0000

>  <r_epik_State_Penalty> (1)
  0.0000

>  <r_epik_Charging_Adjusted_Penalty> (1)
0

>  <i_epik_Tot_Q> (1)
0

>  <i_epik_Tot_abs_Q> (1)
0

>  <s_lp_Force_Field> (1)
S-OPLS

>  <r_lp_Energy> (1)
25.4486

>  <b_lp_Chiralities_Consistent> (1)
1

$$$$
