39145_2-methyl-trans-3-hexene
                    3D
 Schrodinger Suite 2021-3.
 21 20  0  0  1  0            999 V2000
   -2.8640    1.4540    1.4209 C   0  0  0  0  0  0
   -2.2631    0.9543    0.0958 C   0  0  0  0  0  0
   -0.7592    0.9874    0.1026 C   0  0  0  0  0  0
    0.0404   -0.0740   -0.0169 C   0  0  0  0  0  0
    1.5477   -0.0507    0.0129 C   0  0  0  0  0  0
    2.1266   -0.5703   -1.3158 C   0  0  0  0  0  0
    2.0795   -0.8785    1.1973 C   0  0  0  0  0  0
   -3.9583    1.4552    1.3858 H   0  0  0  0  0  0
   -2.5345    2.4756    1.6413 H   0  0  0  0  0  0
   -2.5483    0.8176    2.2540 H   0  0  0  0  0  0
   -2.6116   -0.0654   -0.1091 H   0  0  0  0  0  0
   -2.6402    1.5831   -0.7236 H   0  0  0  0  0  0
   -0.3076    1.9728    0.2385 H   0  0  0  0  0  0
   -0.4084   -1.0622   -0.1476 H   0  0  0  0  0  0
    1.8739    0.9900    0.1469 H   0  0  0  0  0  0
    1.7837    0.0358   -2.1598 H   0  0  0  0  0  0
    1.8119   -1.6053   -1.4965 H   0  0  0  0  0  0
    3.2221   -0.5533   -1.3015 H   0  0  0  0  0  0
    1.7025   -0.4928    2.1494 H   0  0  0  0  0  0
    3.1746   -0.8631    1.2284 H   0  0  0  0  0  0
    1.7635   -1.9252    1.1110 H   0  0  0  0  0  0
  1  2  1  0  0  0
  1  8  1  0  0  0
  1  9  1  0  0  0
  1 10  1  0  0  0
  2  3  1  0  0  0
  2 11  1  0  0  0
  2 12  1  0  0  0
  3  4  2  0  0  0
  3 13  1  0  0  0
  4  5  1  0  0  0
  4 14  1  0  0  0
  5  6  1  0  0  0
  5  7  1  0  0  0
  5 15  1  0  0  0
  6 16  1  0  0  0
  6 17  1  0  0  0
  6 18  1  0  0  0
  7 19  1  0  0  0
  7 20  1  0  0  0
  7 21  1  0  0  0
M  END
>  <i_m_Spin_multiplicity> (1)
1

>  <s_j_Task> (1)
Single Point

>  <s_j_QM_Method> (1)
DFT(b3lyp-d3)

>  <s_j_QM_Basis> (1)
cc-pvtz(-f)

>  <i_j_Number_of_canonical_orbitals> (1)
284

>  <i_j_Geometry_convergence_category> (1)
0

>  <r_j_Gas_Phase_Energy> (1)
-275.278804167953

>  <r_j_Final_Energy> (1)
-275.278804167953

>  <r_j_HOMO> (1)
-0.244827361703476

>  <r_j_LUMO> (1)
0.0150254535775785

>  <r_j_Polarizability> (1)
88.6563820745949

>  <r_j_QM_Dipole_(debye)> (1)
0.0855503367925758

>  <r_j_QM_Dipole_X_(debye)> (1)
-0.0226919307841583

>  <r_j_QM_Dipole_Y_(debye)> (1)
0.0824763773916162

>  <r_j_QM_Dipole_Z_(debye)> (1)
-0.00125840175056451

>  <r_j_Lowest_Frequency_(cm-1)> (1)
86.4741284105719

>  <r_j_Highest_Frequency_(cm-1)> (1)
3064.88110970367

>  <r_j_2nd_Lowest_Frequency_(cm-1)> (1)
128.748462347755

>  <i_j_Num_Negative_Frequencies> (1)
0

>  <r_j_Zero_Point_Energy_(kcal/mol)> (1)
121.037621721961

>  <r_j_Entropy_(cal/mol/K)_298.15K_1.00E+00atm> (1)
89.27037524264

>  <r_j_Enthalpy_(kcal/mol)_298.15K_1.00E+00atm> (1)
6.07419891361829

>  <r_j_Free_Energy_(kcal/mol)_298.15K_1.00E+00atm> (1)
-20.5417634649748

>  <r_j_Internal_Energy_(kcal/mol)_298.15K_1.00E+00atm> (1)
5.48171332479102

>  <r_j_Heat_Capacity_(cal/mol/K)_298.15K_1.00E+00atm> (1)
32.5519667690178

>  <r_j_ln(Q)_298.15K_1.00E+00atm> (1)
34.6704862571152

>  <r_j_Total_Internal_Energy_(au)_298.15K_1.00E+00atm> (1)
-275.077182772428

>  <r_j_Total_Enthalpy_(au)_298.15K_1.00E+00atm> (1)
-275.076238586536

>  <r_j_Total_Free_Energy_(au)_298.15K_1.00E+00atm> (1)
-275.118653822721

>  <r_lp_tautomer_probability> (1)
1

>  <r_epik_Ionization_Penalty> (1)
  0.0000

>  <r_epik_Ionization_Penalty_Charging> (1)
  0.0000

>  <r_epik_Ionization_Penalty_Neutral> (1)
  0.0000

>  <r_epik_State_Penalty> (1)
  0.0000

>  <r_epik_Charging_Adjusted_Penalty> (1)
0

>  <i_epik_Tot_Q> (1)
0

>  <i_epik_Tot_abs_Q> (1)
0

>  <s_lp_Force_Field> (1)
S-OPLS

>  <r_lp_Energy> (1)
-1.05178

>  <b_lp_Chiralities_Consistent> (1)
1

$$$$
