39184_1,6-dinitropyrene
                    3D
 Schrodinger Suite 2021-3.
 30 33  0  0  1  0            999 V2000
   -0.7744    3.6965   -0.0005 C   0  0  0  0  0  0
   -0.0329    2.5568   -0.0004 C   0  0  0  0  0  0
   -0.6616    1.2630   -0.0003 C   0  0  0  0  0  0
    0.0230    0.0174    0.0000 C   0  0  0  0  0  0
   -0.6602   -1.2018    0.0000 C   0  0  0  0  0  0
   -2.0404   -1.2293   -0.0003 C   0  0  0  0  0  0
   -2.7787   -0.0365   -0.0005 C   0  0  0  0  0  0
   -2.1017    1.2175   -0.0004 C   0  0  0  0  0  0
   -2.8790    2.4238   -0.0004 C   0  0  0  0  0  0
   -2.2020    3.6779   -0.0005 C   0  0  0  0  0  0
   -2.9403    4.8706   -0.0003 C   0  0  0  0  0  0
   -4.3206    4.8430    0.0000 C   0  0  0  0  0  0
   -5.0038    3.6239    0.0001 C   0  0  0  0  0  0
   -4.3192    2.3782   -0.0003 C   0  0  0  0  0  0
   -4.9479    1.0845   -0.0005 C   0  0  0  0  0  0
   -4.2064   -0.0552   -0.0006 C   0  0  0  0  0  0
   -6.4795    3.7475    0.0005 N   0  3  1  0  0  0
   -7.1792    2.7325    0.0010 O   0  0  0  0  0  0
   -6.9509    4.8860    0.0006 O   0  5  0  0  0  0
    1.4987   -0.1062    0.0005 N   0  3  1  0  0  0
    1.9701   -1.2447    0.0008 O   0  0  0  0  0  0
    2.1984    0.9089    0.0005 O   0  5  0  0  0  0
   -0.2745    4.6609   -0.0006 H   0  0  0  0  0  0
    1.0426    2.6119   -0.0003 H   0  0  0  0  0  0
   -0.0840   -2.1165    0.0002 H   0  0  0  0  0  0
   -2.5631   -2.1802   -0.0003 H   0  0  0  0  0  0
   -2.4177    5.8215   -0.0004 H   0  0  0  0  0  0
   -4.8968    5.7578    0.0002 H   0  0  0  0  0  0
   -6.0234    1.0294   -0.0005 H   0  0  0  0  0  0
   -4.7062   -1.0196   -0.0008 H   0  0  0  0  0  0
  1 10  1  0  0  0
  1  2  2  0  0  0
  1 23  1  0  0  0
  2  3  1  0  0  0
  2 24  1  0  0  0
  3  8  1  0  0  0
  3  4  2  0  0  0
  4  5  1  0  0  0
  4 20  1  0  0  0
  5  6  2  0  0  0
  5 25  1  0  0  0
  6  7  1  0  0  0
  6 26  1  0  0  0
  7 16  1  0  0  0
  7  8  2  0  0  0
  8  9  1  0  0  0
  9 14  1  0  0  0
  9 10  2  0  0  0
 10 11  1  0  0  0
 11 12  2  0  0  0
 11 27  1  0  0  0
 12 13  1  0  0  0
 12 28  1  0  0  0
 13 14  2  0  0  0
 13 17  1  0  0  0
 14 15  1  0  0  0
 15 16  2  0  0  0
 15 29  1  0  0  0
 16 30  1  0  0  0
 17 18  2  0  0  0
 17 19  1  0  0  0
 20 21  2  0  0  0
 20 22  1  0  0  0
M  END
>  <i_m_Spin_multiplicity> (1)
1

>  <s_j_Task> (1)
Single Point

>  <s_j_QM_Method> (1)
DFT(b3lyp-d3)

>  <s_j_QM_Basis> (1)
cc-pvtz(-f)

>  <i_j_Number_of_canonical_orbitals> (1)
559

>  <i_j_Geometry_convergence_category> (1)
0

>  <r_j_Gas_Phase_Energy> (1)
-1025.10398962677

>  <r_j_Final_Energy> (1)
-1025.10398962677

>  <r_j_HOMO> (1)
-0.237206287453814

>  <r_j_LUMO> (1)
-0.124384930570908

>  <r_j_Polarizability> (1)
242.690707309449

>  <r_j_QM_Dipole_(debye)> (1)
0.00689349488963386

>  <r_j_QM_Dipole_X_(debye)> (1)
0.00526555256546885

>  <r_j_QM_Dipole_Y_(debye)> (1)
-0.00365210092578262

>  <r_j_QM_Dipole_Z_(debye)> (1)
-0.00254094210905924

>  <r_j_Lowest_Frequency_(cm-1)> (1)
42.3261893562848

>  <r_j_Highest_Frequency_(cm-1)> (1)
3242.79386546247

>  <r_j_2nd_Lowest_Frequency_(cm-1)> (1)
44.6617752911314

>  <i_j_Num_Negative_Frequencies> (1)
0

>  <r_j_Zero_Point_Energy_(kcal/mol)> (1)
132.715023626786

>  <r_j_Entropy_(cal/mol/K)_298.15K_1.00E+00atm> (1)
118.64375153634

>  <r_j_Enthalpy_(kcal/mol)_298.15K_1.00E+00atm> (1)
9.82910437256629

>  <r_j_Free_Energy_(kcal/mol)_298.15K_1.00E+00atm> (1)
-25.5445301479935

>  <r_j_Internal_Energy_(kcal/mol)_298.15K_1.00E+00atm> (1)
9.23661878373902

>  <r_j_Heat_Capacity_(cal/mol/K)_298.15K_1.00E+00atm> (1)
60.9826974053857

>  <r_j_ln(Q)_298.15K_1.00E+00atm> (1)
43.114179702758

>  <r_j_Total_Internal_Energy_(au)_298.15K_1.00E+00atm> (1)
-1024.87777528388

>  <r_j_Total_Enthalpy_(au)_298.15K_1.00E+00atm> (1)
-1024.87683109799

>  <r_j_Total_Free_Energy_(au)_298.15K_1.00E+00atm> (1)
-1024.93320257318

>  <r_lp_tautomer_probability> (1)
1

>  <r_epik_Ionization_Penalty> (1)
  0.0000

>  <r_epik_Ionization_Penalty_Charging> (1)
  0.0000

>  <r_epik_Ionization_Penalty_Neutral> (1)
  0.0000

>  <r_epik_State_Penalty> (1)
  0.0000

>  <r_epik_Charging_Adjusted_Penalty> (1)
0

>  <i_epik_Tot_Q> (1)
0

>  <i_epik_Tot_abs_Q> (1)
4

>  <s_lp_Force_Field> (1)
S-OPLS

>  <r_lp_Energy> (1)
56.5887

>  <b_lp_Chiralities_Consistent> (1)
1

$$$$
