39327_Oxyfluorfen
                    3D
 Schrodinger Suite 2021-3.
 35 36  0  0  1  0            999 V2000
   -2.0272    0.9363    0.6360 C   0  0  0  0  0  0
   -0.5325    1.1373    0.7960 C   0  0  0  0  0  0
    0.1031    0.0704    0.0786 O   0  0  0  0  0  0
    1.4440    0.0036    0.0284 C   0  0  0  0  0  0
    2.0497   -1.0703   -0.6679 C   0  0  0  0  0  0
    3.4392   -1.2019   -0.6966 C   0  0  0  0  0  0
    4.2589   -0.2749   -0.0772 C   0  0  0  0  0  0
    3.6629    0.7889    0.6027 C   0  0  0  0  0  0
    2.2791    0.9292    0.6735 C   0  0  0  0  0  0
    4.5349    1.6605    1.2160 O   0  0  0  0  0  0
    4.0712    2.8109    1.8108 C   0  0  0  0  0  0
    3.7481    3.9496    1.0563 C   0  0  0  0  0  0
    3.3823    5.1292    1.6989 C   0  0  0  0  0  0
    3.3386    5.1722    3.0930 C   0  0  0  0  0  0
    3.6533    4.0421    3.8482 C   0  0  0  0  0  0
    4.0180    2.8645    3.2028 C   0  0  0  0  0  0
    2.8953    6.4410    3.7749 C   0  0  0  0  0  0
    3.3891    6.5336    5.0279 F   0  0  0  0  0  0
    3.2918    7.5378    3.0930 F   0  0  0  0  0  0
    1.5469    6.5013    3.8726 F   0  0  0  0  0  0
    3.8233    3.8963   -0.6871 Cl  0  0  0  0  0  0
    1.2689   -2.0773   -1.3873 N   0  3  1  0  0  0
    0.1469   -1.7775   -1.7906 O   0  0  0  0  0  0
    1.8048   -3.1763   -1.5685 O   0  5  0  0  0  0
   -2.5703    1.7260    1.1634 H   0  0  0  0  0  0
   -2.3272   -0.0317    1.0452 H   0  0  0  0  0  0
   -2.3021    0.9626   -0.4214 H   0  0  0  0  0  0
   -0.2142    2.1029    0.3804 H   0  0  0  0  0  0
   -0.2356    1.1023    1.8535 H   0  0  0  0  0  0
    3.8566   -2.0477   -1.2283 H   0  0  0  0  0  0
    5.3387   -0.3518   -0.1094 H   0  0  0  0  0  0
    1.8563    1.7551    1.2267 H   0  0  0  0  0  0
    3.1502    6.0110    1.1139 H   0  0  0  0  0  0
    3.6234    4.0886    4.9306 H   0  0  0  0  0  0
    4.2811    1.9714    3.7589 H   0  0  0  0  0  0
  1  2  1  0  0  0
  1 25  1  0  0  0
  1 26  1  0  0  0
  1 27  1  0  0  0
  2  3  1  0  0  0
  2 28  1  0  0  0
  2 29  1  0  0  0
  3  4  1  0  0  0
  4  9  1  0  0  0
  4  5  2  0  0  0
  5  6  1  0  0  0
  5 22  1  0  0  0
  6  7  2  0  0  0
  6 30  1  0  0  0
  7  8  1  0  0  0
  7 31  1  0  0  0
  8  9  2  0  0  0
  8 10  1  0  0  0
  9 32  1  0  0  0
 10 11  1  0  0  0
 11 16  1  0  0  0
 11 12  2  0  0  0
 12 13  1  0  0  0
 12 21  1  0  0  0
 13 14  2  0  0  0
 13 33  1  0  0  0
 14 15  1  0  0  0
 14 17  1  0  0  0
 15 16  2  0  0  0
 15 34  1  0  0  0
 16 35  1  0  0  0
 17 18  1  0  0  0
 17 19  1  0  0  0
 17 20  1  0  0  0
 22 23  2  0  0  0
 22 24  1  0  0  0
M  END
>  <i_m_Spin_multiplicity> (1)
1

>  <s_j_Task> (1)
Single Point

>  <s_j_QM_Method> (1)
DFT(b3lyp-d3)

>  <s_j_QM_Basis> (1)
cc-pvtz(-f)

>  <i_j_Number_of_canonical_orbitals> (1)
644

>  <i_j_Geometry_convergence_category> (1)
3

>  <r_j_Gas_Phase_Energy> (1)
-1693.96571146208

>  <r_j_Final_Energy> (1)
-1693.96571146208

>  <r_j_HOMO> (1)
-0.249959878564611

>  <r_j_LUMO> (1)
-0.0850968906370193

>  <r_j_Polarizability> (1)
213.840933814587

>  <r_j_QM_Dipole_(debye)> (1)
4.69708004328125

>  <r_j_QM_Dipole_X_(debye)> (1)
1.11950543830205

>  <r_j_QM_Dipole_Y_(debye)> (1)
3.01533748656241

>  <r_j_QM_Dipole_Z_(debye)> (1)
3.42301159050545

>  <r_j_Lowest_Frequency_(cm-1)> (1)
31.8962698375749

>  <r_j_Highest_Frequency_(cm-1)> (1)
3196.73576745014

>  <r_j_2nd_Lowest_Frequency_(cm-1)> (1)
33.8891689964449

>  <i_j_Num_Negative_Frequencies> (1)
0

>  <r_j_Zero_Point_Energy_(kcal/mol)> (1)
152.331257367069

>  <r_j_Entropy_(cal/mol/K)_298.15K_1.00E+00atm> (1)
146.000491627119

>  <r_j_Enthalpy_(kcal/mol)_298.15K_1.00E+00atm> (1)
13.3571152164086

>  <r_j_Free_Energy_(kcal/mol)_298.15K_1.00E+00atm> (1)
-30.172931362217

>  <r_j_Internal_Energy_(kcal/mol)_298.15K_1.00E+00atm> (1)
12.7646296275813

>  <r_j_Heat_Capacity_(cal/mol/K)_298.15K_1.00E+00atm> (1)
78.5101148506067

>  <r_j_ln(Q)_298.15K_1.00E+00atm> (1)
50.9260173263272

>  <r_j_Total_Internal_Energy_(au)_298.15K_1.00E+00atm> (1)
-1693.70261441751

>  <r_j_Total_Enthalpy_(au)_298.15K_1.00E+00atm> (1)
-1693.70167023162

>  <r_j_Total_Free_Energy_(au)_298.15K_1.00E+00atm> (1)
-1693.77103977687

>  <r_lp_tautomer_probability> (1)
1

>  <r_epik_Ionization_Penalty> (1)
  0.0000

>  <r_epik_Ionization_Penalty_Charging> (1)
  0.0000

>  <r_epik_Ionization_Penalty_Neutral> (1)
  0.0000

>  <r_epik_State_Penalty> (1)
  0.0000

>  <r_epik_Charging_Adjusted_Penalty> (1)
0

>  <i_epik_Tot_Q> (1)
0

>  <i_epik_Tot_abs_Q> (1)
2

>  <s_lp_Force_Field> (1)
S-OPLS

>  <r_lp_Energy> (1)
30.525335

>  <b_lp_Chiralities_Consistent> (1)
1

$$$$
