398_2-Nitropropane
                    3D
 Schrodinger Suite 2021-3.
 13 12  0  0  1  0            999 V2000
   -0.0327   -0.0294    0.0310 C   0  0  0  0  0  0
    1.4930    0.0166   -0.0029 C   0  0  0  0  0  0
    2.0499    0.7071   -1.2454 C   0  0  0  0  0  0
    2.0111   -1.4164    0.0167 N   0  3  1  0  0  0
    1.6919   -2.1366   -0.9265 O   0  0  0  0  0  0
    2.7083   -1.7559    0.9676 O   0  5  0  0  0  0
   -0.4242    0.9916    0.0431 H   0  0  0  0  0  0
   -0.3933   -0.5477    0.9238 H   0  0  0  0  0  0
   -0.4121   -0.5445   -0.8546 H   0  0  0  0  0  0
    1.8984    0.4535    0.9109 H   0  0  0  0  0  0
    1.7084    1.7458   -1.2645 H   0  0  0  0  0  0
    1.6961    0.2005   -2.1463 H   0  0  0  0  0  0
    3.1435    0.7037   -1.2437 H   0  0  0  0  0  0
  1  2  1  0  0  0
  1  7  1  0  0  0
  1  8  1  0  0  0
  1  9  1  0  0  0
  2  3  1  0  0  0
  2  4  1  0  0  0
  2 10  1  0  0  0
  3 11  1  0  0  0
  3 12  1  0  0  0
  3 13  1  0  0  0
  4  5  2  0  0  0
  4  6  1  0  0  0
M  END
>  <i_m_Spin_multiplicity> (1)
1

>  <s_j_Task> (1)
Single Point

>  <s_j_QM_Method> (1)
DFT(b3lyp-d3)

>  <s_j_QM_Basis> (1)
cc-pvtz(-f)

>  <i_j_Number_of_canonical_orbitals> (1)
201

>  <i_j_Geometry_convergence_category> (1)
3

>  <r_j_Gas_Phase_Energy> (1)
-323.771814106767

>  <r_j_Final_Energy> (1)
-323.771814106767

>  <r_j_HOMO> (1)
-0.306862797493318

>  <r_j_LUMO> (1)
-0.0802195825301249

>  <r_j_Polarizability> (1)
51.879129433826

>  <r_j_QM_Dipole_(debye)> (1)
3.71794472066929

>  <r_j_QM_Dipole_X_(debye)> (1)
-1.38868048909037

>  <r_j_QM_Dipole_Y_(debye)> (1)
3.43701691498629

>  <r_j_QM_Dipole_Z_(debye)> (1)
-0.285646934642228

>  <r_j_Lowest_Frequency_(cm-1)> (1)
82.6777832016124

>  <r_j_Highest_Frequency_(cm-1)> (1)
3096.7073328095

>  <r_j_2nd_Lowest_Frequency_(cm-1)> (1)
274.170271879344

>  <i_j_Num_Negative_Frequencies> (1)
0

>  <r_j_Zero_Point_Energy_(kcal/mol)> (1)
66.8581151340891

>  <r_j_Entropy_(cal/mol/K)_298.15K_1.00E+00atm> (1)
78.0787193052031

>  <r_j_Enthalpy_(kcal/mol)_298.15K_1.00E+00atm> (1)
4.56776196584271

>  <r_j_Free_Energy_(kcal/mol)_298.15K_1.00E+00atm> (1)
-18.7114081950036

>  <r_j_Internal_Energy_(kcal/mol)_298.15K_1.00E+00atm> (1)
3.97527637701543

>  <r_j_Heat_Capacity_(cal/mol/K)_298.15K_1.00E+00atm> (1)
22.4466766793528

>  <r_j_ln(Q)_298.15K_1.00E+00atm> (1)
31.5812039108659

>  <r_j_Total_Internal_Energy_(au)_298.15K_1.00E+00atm> (1)
-323.658933911491

>  <r_j_Total_Enthalpy_(au)_298.15K_1.00E+00atm> (1)
-323.657989725599

>  <r_j_Total_Free_Energy_(au)_298.15K_1.00E+00atm> (1)
-323.695087444875

>  <r_lp_tautomer_probability> (1)
1

>  <r_epik_Ionization_Penalty> (1)
  0.0002

>  <r_epik_Ionization_Penalty_Charging> (1)
  0.0000

>  <r_epik_Ionization_Penalty_Neutral> (1)
  0.0002

>  <r_epik_State_Penalty> (1)
  0.0000

>  <r_epik_Charging_Adjusted_Penalty> (1)
0

>  <i_epik_Tot_Q> (1)
0

>  <i_epik_Tot_abs_Q> (1)
2

>  <s_lp_Force_Field> (1)
S-OPLS

>  <r_lp_Energy> (1)
2.24613

>  <b_lp_Chiralities_Consistent> (1)
1

$$$$
