408_Cotinine
                    3D
 Schrodinger Suite 2021-3.
 25 26  0  0  1  0            999 V2000
   -0.0052    0.1292   -0.0137 C   0  0  0  0  0  0
    1.4361    0.0611   -0.1453 N   0  0  0  0  0  0
    2.1644   -1.2028   -0.0441 C   0  0  0  0  0  0
    3.6268   -0.7672   -0.3331 C   0  0  0  0  0  0
    3.6780    0.6943    0.1262 C   0  0  0  0  0  0
    2.2314    1.1747    0.0163 C   0  0  0  0  0  0
    1.8319    2.3249    0.0870 O   0  0  0  0  0  0
    1.6519   -2.2597   -0.9961 C   0  0  0  0  0  0
    1.4592   -3.5782   -0.5751 C   0  0  0  0  0  0
    1.0431   -4.5725   -1.3688 N   0  0  0  0  0  0
    0.7881   -4.2663   -2.6456 C   0  0  0  0  0  0
    0.9345   -2.9811   -3.1746 C   0  0  0  0  0  0
    1.3760   -1.9639   -2.3351 C   0  0  0  0  0  0
   -0.2902    1.1814   -0.0536 H   0  0  0  0  0  0
   -0.3345   -0.2982    0.9428 H   0  0  0  0  0  0
   -0.4968   -0.4171   -0.8239 H   0  0  0  0  0  0
    2.0854   -1.5944    0.9839 H   0  0  0  0  0  0
    4.3448   -1.4226    0.1647 H   0  0  0  0  0  0
    3.8071   -0.8327   -1.4107 H   0  0  0  0  0  0
    3.9753    0.7877    1.1778 H   0  0  0  0  0  0
    4.3417    1.3337   -0.4593 H   0  0  0  0  0  0
    1.6518   -3.8458    0.4638 H   0  0  0  0  0  0
    0.4458   -5.0845   -3.2767 H   0  0  0  0  0  0
    0.7048   -2.7879   -4.2178 H   0  0  0  0  0  0
    1.4970   -0.9468   -2.6985 H   0  0  0  0  0  0
  1  2  1  0  0  0
  1 14  1  0  0  0
  1 15  1  0  0  0
  1 16  1  0  0  0
  2  6  1  0  0  0
  2  3  1  0  0  0
  3  4  1  0  0  0
  3  8  1  0  0  0
  3 17  1  0  0  0
  4  5  1  0  0  0
  4 18  1  0  0  0
  4 19  1  0  0  0
  5  6  1  0  0  0
  5 20  1  0  0  0
  5 21  1  0  0  0
  6  7  2  0  0  0
  8 13  1  0  0  0
  8  9  2  0  0  0
  9 10  1  0  0  0
  9 22  1  0  0  0
 10 11  2  0  0  0
 11 12  1  0  0  0
 11 23  1  0  0  0
 12 13  2  0  0  0
 12 24  1  0  0  0
 13 25  1  0  0  0
M  END
>  <i_m_Spin_multiplicity> (1)
1

>  <s_j_Task> (1)
Single Point

>  <s_j_QM_Method> (1)
DFT(b3lyp-d3)

>  <s_j_QM_Basis> (1)
cc-pvtz(-f)

>  <i_j_Number_of_canonical_orbitals> (1)
402

>  <i_j_Geometry_convergence_category> (1)
1

>  <r_j_Gas_Phase_Energy> (1)
-573.236596943907

>  <r_j_Final_Energy> (1)
-573.236596943907

>  <r_j_HOMO> (1)
-0.249358875526816

>  <r_j_LUMO> (1)
-0.0535974670805409

>  <r_j_Polarizability> (1)
126.024990779322

>  <r_j_QM_Dipole_(debye)> (1)
2.00035147090649

>  <r_j_QM_Dipole_X_(debye)> (1)
0.799495700190452

>  <r_j_QM_Dipole_Y_(debye)> (1)
-1.64958052657583

>  <r_j_QM_Dipole_Z_(debye)> (1)
-0.800685155898724

>  <r_j_Lowest_Frequency_(cm-1)> (1)
76.159384230445

>  <r_j_Highest_Frequency_(cm-1)> (1)
3147.97103199379

>  <r_j_2nd_Lowest_Frequency_(cm-1)> (1)
88.296482772189

>  <i_j_Num_Negative_Frequencies> (1)
0

>  <r_j_Zero_Point_Energy_(kcal/mol)> (1)
130.025988572427

>  <r_j_Entropy_(cal/mol/K)_298.15K_1.00E+00atm> (1)
101.111254070722

>  <r_j_Enthalpy_(kcal/mol)_298.15K_1.00E+00atm> (1)
7.32656965917691

>  <r_j_Free_Energy_(kcal/mol)_298.15K_1.00E+00atm> (1)
-22.8197507420088

>  <r_j_Internal_Energy_(kcal/mol)_298.15K_1.00E+00atm> (1)
6.73408407034964

>  <r_j_Heat_Capacity_(cal/mol/K)_298.15K_1.00E+00atm> (1)
42.3581352534984

>  <r_j_ln(Q)_298.15K_1.00E+00atm> (1)
38.5152840378391

>  <r_j_Total_Internal_Energy_(au)_298.15K_1.00E+00atm> (1)
-573.018655894121

>  <r_j_Total_Enthalpy_(au)_298.15K_1.00E+00atm> (1)
-573.017711708229

>  <r_j_Total_Free_Energy_(au)_298.15K_1.00E+00atm> (1)
-573.065752928071

>  <r_epik_Ionization_Penalty> (1)
  0.0119

>  <r_epik_Ionization_Penalty_Charging> (1)
  0.0000

>  <r_epik_Ionization_Penalty_Neutral> (1)
  0.0119

>  <r_epik_State_Penalty> (1)
  0.0091

>  <r_epik_Charging_Adjusted_Penalty> (1)
0.00914238346228153

>  <i_epik_Tot_Q> (1)
0

>  <i_epik_Tot_abs_Q> (1)
0

>  <s_lp_Force_Field> (1)
S-OPLS

>  <r_lp_Energy> (1)
0.13078

>  <b_lp_Chiralities_Consistent> (1)
1

$$$$
