4093_2-Methacrylic Acid
                    3D
 Schrodinger Suite 2021-3.
 11 10  0  0  1  0            999 V2000
    0.0129    0.0369    0.0000 C   0  0  0  0  0  0
    1.5274    0.0120    0.0000 C   0  0  0  0  0  0
    2.2281   -1.1271    0.0000 C   0  0  0  0  0  0
    2.2704    1.3919    0.0000 C   0  0  0  0  0  0
    1.5160    2.4024    0.0001 O   0  0  0  0  0  0
    3.5246    1.3399   -0.0001 O   0  5  0  0  0  0
   -0.3071    1.0814    0.0000 H   0  0  0  0  0  0
   -0.4056   -0.4670    0.8828 H   0  0  0  0  0  0
   -0.4056   -0.4670   -0.8829 H   0  0  0  0  0  0
    1.7570   -2.1120    0.0001 H   0  0  0  0  0  0
    3.3127   -1.0706    0.0000 H   0  0  0  0  0  0
  1  2  1  0  0  0
  1  7  1  0  0  0
  1  8  1  0  0  0
  1  9  1  0  0  0
  2  3  2  0  0  0
  2  4  1  0  0  0
  3 10  1  0  0  0
  3 11  1  0  0  0
  4  5  2  0  0  0
  4  6  1  0  0  0
M  END
>  <i_m_Spin_multiplicity> (1)
1

>  <s_j_Task> (1)
Single Point

>  <s_j_QM_Method> (1)
DFT(b3lyp-d3)

>  <s_j_QM_Basis> (1)
cc-pvtz(-f)

>  <i_j_Number_of_canonical_orbitals> (1)
182

>  <i_j_Geometry_convergence_category> (1)
0

>  <r_j_Gas_Phase_Energy> (1)
-306.034299122671

>  <r_j_Final_Energy> (1)
-306.034299122671

>  <r_j_HOMO> (1)
-0.0290873388970716

>  <r_j_LUMO> (1)
0.145171050689946

>  <r_j_Polarizability> (1)
57.4527203597569

>  <r_j_QM_Dipole_(debye)> (1)
4.89371553397327

>  <r_j_QM_Dipole_X_(debye)> (1)
-2.79863092984734

>  <r_j_QM_Dipole_Y_(debye)> (1)
-4.01448834053786

>  <r_j_QM_Dipole_Z_(debye)> (1)
9.81766470696584e-05

>  <r_j_Lowest_Frequency_(cm-1)> (1)
76.8350729315306

>  <r_j_Highest_Frequency_(cm-1)> (1)
3151.86832985153

>  <r_j_2nd_Lowest_Frequency_(cm-1)> (1)
119.712262836411

>  <i_j_Num_Negative_Frequencies> (1)
0

>  <r_j_Zero_Point_Energy_(kcal/mol)> (1)
50.7787813827178

>  <r_j_Entropy_(cal/mol/K)_298.15K_1.00E+00atm> (1)
77.8737505091772

>  <r_j_Enthalpy_(kcal/mol)_298.15K_1.00E+00atm> (1)
4.45192069611972

>  <r_j_Free_Energy_(kcal/mol)_298.15K_1.00E+00atm> (1)
-18.7661380181914

>  <r_j_Internal_Energy_(kcal/mol)_298.15K_1.00E+00atm> (1)
3.85943510729245

>  <r_j_Heat_Capacity_(cal/mol/K)_298.15K_1.00E+00atm> (1)
21.1730285686131

>  <r_j_ln(Q)_298.15K_1.00E+00atm> (1)
31.6735771672284

>  <r_j_Total_Internal_Energy_(au)_298.15K_1.00E+00atm> (1)
-305.947227581759

>  <r_j_Total_Enthalpy_(au)_298.15K_1.00E+00atm> (1)
-305.946283395867

>  <r_j_Total_Free_Energy_(au)_298.15K_1.00E+00atm> (1)
-305.983283727853

>  <r_epik_Ionization_Penalty> (1)
  0.0023

>  <r_epik_Ionization_Penalty_Charging> (1)
  0.0023

>  <r_epik_Ionization_Penalty_Neutral> (1)
  0.0000

>  <r_epik_State_Penalty> (1)
  0.0016

>  <r_epik_Charging_Adjusted_Penalty> (1)
0.00384141

>  <i_epik_Tot_Q> (1)
-1

>  <i_epik_Tot_abs_Q> (1)
1

>  <s_lp_Force_Field> (1)
S-OPLS

>  <r_lp_Energy> (1)
12.2284

>  <b_lp_Chiralities_Consistent> (1)
1

$$$$
