412_Nornicotine
                    3D
 Schrodinger Suite 2021-3.
 23 24  0  0  1  0            999 V2000
   -1.9299    0.1585   -1.5295 C   0  0  0  0  0  0
   -0.5678   -0.5692   -1.3596 C   0  0  0  0  0  0
    0.0155   -0.0055   -0.0362 C   0  0  0  0  0  0
   -0.5752    1.3371   -0.0027 N   0  0  0  0  0  0
   -1.9872    1.1507   -0.3453 C   0  0  0  0  0  0
    1.5247    0.0231    0.0104 C   0  0  0  0  0  0
    2.2470   -0.9508    0.7076 C   0  0  0  0  0  0
    3.5834   -1.0162    0.7552 N   0  0  0  0  0  0
    4.2619   -0.0741    0.0899 C   0  0  0  0  0  0
    3.6478    0.9523   -0.6314 C   0  0  0  0  0  0
    2.2576    0.9994   -0.6726 C   0  0  0  0  0  0
   -2.7787   -0.5303   -1.5119 H   0  0  0  0  0  0
   -1.9619    0.6926   -2.4828 H   0  0  0  0  0  0
   -0.6579   -1.6579   -1.3204 H   0  0  0  0  0  0
    0.1079   -0.3244   -2.1834 H   0  0  0  0  0  0
   -0.3476   -0.6389    0.7962 H   0  0  0  0  0  0
   -0.4477    1.7815    0.9030 H   0  0  0  0  0  0
   -2.4527    2.1067   -0.6058 H   0  0  0  0  0  0
   -2.5710    0.7086    0.4826 H   0  0  0  0  0  0
    1.7124   -1.7221    1.2625 H   0  0  0  0  0  0
    5.3476   -0.1392    0.1386 H   0  0  0  0  0  0
    4.2497    1.6951   -1.1463 H   0  0  0  0  0  0
    1.7272    1.7811   -1.2077 H   0  0  0  0  0  0
  1  5  1  0  0  0
  1  2  1  0  0  0
  1 12  1  0  0  0
  1 13  1  0  0  0
  2  3  1  0  0  0
  2 14  1  0  0  0
  2 15  1  0  0  0
  3  4  1  0  0  0
  3  6  1  0  0  0
  3 16  1  0  0  0
  4  5  1  0  0  0
  4 17  1  0  0  0
  5 18  1  0  0  0
  5 19  1  0  0  0
  6 11  1  0  0  0
  6  7  2  0  0  0
  7  8  1  0  0  0
  7 20  1  0  0  0
  8  9  2  0  0  0
  9 10  1  0  0  0
  9 21  1  0  0  0
 10 11  2  0  0  0
 10 22  1  0  0  0
 11 23  1  0  0  0
M  END
>  <i_m_Spin_multiplicity> (1)
1

>  <s_j_Task> (1)
Single Point

>  <s_j_QM_Method> (1)
DFT(b3lyp-d3)

>  <s_j_QM_Basis> (1)
cc-pvtz(-f)

>  <i_j_Number_of_canonical_orbitals> (1)
356

>  <i_j_Geometry_convergence_category> (1)
3

>  <r_j_Gas_Phase_Energy> (1)
-459.837680290144

>  <r_j_Final_Energy> (1)
-459.837680290144

>  <r_j_HOMO> (1)
-0.234426649165125

>  <r_j_LUMO> (1)
-0.0304330233646337

>  <r_j_Polarizability> (1)
113.391893543923

>  <r_j_QM_Dipole_(debye)> (1)
2.49814400386381

>  <r_j_QM_Dipole_X_(debye)> (1)
-2.07104203264523

>  <r_j_QM_Dipole_Y_(debye)> (1)
1.24961612441608

>  <r_j_QM_Dipole_Z_(debye)> (1)
-0.624474102470829

>  <r_j_Lowest_Frequency_(cm-1)> (1)
80.4493488122256

>  <r_j_Highest_Frequency_(cm-1)> (1)
3470.99900853804

>  <r_j_2nd_Lowest_Frequency_(cm-1)> (1)
111.084257152702

>  <i_j_Num_Negative_Frequencies> (1)
0

>  <r_j_Zero_Point_Energy_(kcal/mol)> (1)
124.306290750136

>  <r_j_Entropy_(cal/mol/K)_298.15K_1.00E+00atm> (1)
92.5291628931391

>  <r_j_Enthalpy_(kcal/mol)_298.15K_1.00E+00atm> (1)
6.13034794825537

>  <r_j_Free_Energy_(kcal/mol)_298.15K_1.00E+00atm> (1)
-21.457221968334

>  <r_j_Internal_Energy_(kcal/mol)_298.15K_1.00E+00atm> (1)
5.53786235942809

>  <r_j_Heat_Capacity_(cal/mol/K)_298.15K_1.00E+00atm> (1)
35.1893127058238

>  <r_j_ln(Q)_298.15K_1.00E+00atm> (1)
36.2156014812191

>  <r_j_Total_Internal_Energy_(au)_298.15K_1.00E+00atm> (1)
-459.63076045974

>  <r_j_Total_Enthalpy_(au)_298.15K_1.00E+00atm> (1)
-459.629816273848

>  <r_j_Total_Free_Energy_(au)_298.15K_1.00E+00atm> (1)
-459.673779865212

>  <r_epik_Ionization_Penalty> (1)
  2.0692

>  <r_epik_Ionization_Penalty_Charging> (1)
  0.0000

>  <r_epik_Ionization_Penalty_Neutral> (1)
  2.0692

>  <r_epik_State_Penalty> (1)
  2.1881

>  <r_epik_Charging_Adjusted_Penalty> (1)
2.18805

>  <i_epik_Tot_Q> (1)
0

>  <i_epik_Tot_abs_Q> (1)
0

>  <s_lp_Force_Field> (1)
S-OPLS

>  <r_lp_Energy> (1)
19.4982

>  <b_lp_Chiralities_Consistent> (1)
1

$$$$
