41431_Methyl pentacosanoate
                    3D
 Schrodinger Suite 2021-3.
 80 79  0  0  1  0            999 V2000
  -12.7143    2.0904    3.6878 C   0  0  0  0  0  0
  -11.1828    2.0943    3.6965 C   0  0  0  0  0  0
  -10.5754    2.9360    2.5676 C   0  0  0  0  0  0
   -9.0428    2.9368    2.5718 C   0  0  0  0  0  0
   -8.4202    3.7652    1.4418 C   0  0  0  0  0  0
   -6.8873    3.7353    1.4536 C   0  0  0  0  0  0
   -6.2483    4.5306    0.3074 C   0  0  0  0  0  0
   -4.7112    4.5568    0.3372 C   0  0  0  0  0  0
   -4.0586    3.1780    0.1742 C   0  0  0  0  0  0
   -2.5265    3.2184    0.1247 C   0  0  0  0  0  0
   -1.9059    1.8210    0.0168 C   0  0  0  0  0  0
   -0.3738    1.8110   -0.0346 C   0  0  0  0  0  0
    0.2005    0.3916   -0.1076 C   0  0  0  0  0  0
    1.7304    0.3306   -0.1798 C   0  0  0  0  0  0
    2.2578   -1.1082   -0.2321 C   0  0  0  0  0  0
    3.7844   -1.2074   -0.3481 C   0  0  0  0  0  0
    4.3240   -2.6460   -0.2913 C   0  0  0  0  0  0
    3.8673   -3.5400   -1.4519 C   0  0  0  0  0  0
    4.4359   -4.9622   -1.3837 C   0  0  0  0  0  0
    3.9629   -5.8503   -2.5429 C   0  0  0  0  0  0
    4.3967   -7.3202   -2.4398 C   0  0  0  0  0  0
    5.9132   -7.5419   -2.5056 C   0  0  0  0  0  0
    6.2956   -9.0261   -2.4851 C   0  0  0  0  0  0
    7.8108   -9.2366   -2.5405 C   0  0  0  0  0  0
    8.3070  -10.6706   -2.5299 C   0  0  0  0  0  0
    9.4748  -10.9864   -2.6069 O   0  0  0  0  0  0
    7.3021  -11.5695   -2.4210 O   0  0  0  0  0  0
    7.7156  -12.9462   -2.4018 C   0  0  0  0  0  0
  -13.1204    1.4824    4.5031 H   0  0  0  0  0  0
  -13.1019    1.6863    2.7454 H   0  0  0  0  0  0
  -13.1120    3.1058    3.7988 H   0  0  0  0  0  0
  -10.8211    2.4717    4.6627 H   0  0  0  0  0  0
  -10.8121    1.0632    3.6165 H   0  0  0  0  0  0
  -10.9372    2.5600    1.5996 H   0  0  0  0  0  0
  -10.9424    3.9695    2.6465 H   0  0  0  0  0  0
   -8.6826    3.3149    3.5394 H   0  0  0  0  0  0
   -8.6813    1.9007    2.5002 H   0  0  0  0  0  0
   -8.7833    3.3908    0.4738 H   0  0  0  0  0  0
   -8.7688    4.8053    1.5141 H   0  0  0  0  0  0
   -6.5224    4.1282    2.4139 H   0  0  0  0  0  0
   -6.5570    2.6895    1.4098 H   0  0  0  0  0  0
   -6.5842    4.1125   -0.6525 H   0  0  0  0  0  0
   -6.6247    5.5622    0.3369 H   0  0  0  0  0  0
   -4.3496    5.2193   -0.4609 H   0  0  0  0  0  0
   -4.3739    5.0070    1.2819 H   0  0  0  0  0  0
   -4.3645    2.5232    1.0002 H   0  0  0  0  0  0
   -4.4387    2.7048   -0.7431 H   0  0  0  0  0  0
   -2.2006    3.8343   -0.7256 H   0  0  0  0  0  0
   -2.1447    3.7186    1.0263 H   0  0  0  0  0  0
   -2.2401    1.2142    0.8708 H   0  0  0  0  0  0
   -2.2994    1.3193   -0.8791 H   0  0  0  0  0  0
   -0.0313    2.3920   -0.9027 H   0  0  0  0  0  0
    0.0268    2.3233    0.8517 H   0  0  0  0  0  0
   -0.1415   -0.1795    0.7677 H   0  0  0  0  0  0
   -0.2207   -0.1224   -0.9836 H   0  0  0  0  0  0
    2.0774    0.8809   -1.0661 H   0  0  0  0  0  0
    2.1617    0.8494    0.6882 H   0  0  0  0  0  0
    1.9295   -1.6461    0.6695 H   0  0  0  0  0  0
    1.7866   -1.6237   -1.0788 H   0  0  0  0  0  0
    4.1090   -0.7326   -1.2852 H   0  0  0  0  0  0
    4.2416   -0.6234    0.4622 H   0  0  0  0  0  0
    5.4219   -2.6173   -0.2761 H   0  0  0  0  0  0
    4.0196   -3.1073    0.6594 H   0  0  0  0  0  0
    2.7716   -3.6005   -1.4677 H   0  0  0  0  0  0
    4.1593   -3.0744   -2.4045 H   0  0  0  0  0  0
    5.5326   -4.9117   -1.3704 H   0  0  0  0  0  0
    4.1411   -5.4249   -0.4304 H   0  0  0  0  0  0
    2.8663   -5.8097   -2.5926 H   0  0  0  0  0  0
    4.3243   -5.4297   -3.4923 H   0  0  0  0  0  0
    4.0106   -7.7471   -1.5031 H   0  0  0  0  0  0
    3.9217   -7.8894   -3.2503 H   0  0  0  0  0  0
    6.3089   -7.0725   -3.4181 H   0  0  0  0  0  0
    6.4027   -7.0324   -1.6653 H   0  0  0  0  0  0
    5.8948   -9.5002   -1.5816 H   0  0  0  0  0  0
    5.8244   -9.5434   -3.3293 H   0  0  0  0  0  0
    8.2383   -8.7742   -3.4388 H   0  0  0  0  0  0
    8.3049   -8.7381   -1.6969 H   0  0  0  0  0  0
    6.7991  -13.5288   -2.3080 H   0  0  0  0  0  0
    8.3818  -13.1363   -1.5561 H   0  0  0  0  0  0
    8.2427  -13.2027   -3.3246 H   0  0  0  0  0  0
  1  2  1  0  0  0
  1 29  1  0  0  0
  1 30  1  0  0  0
  1 31  1  0  0  0
  2  3  1  0  0  0
  2 32  1  0  0  0
  2 33  1  0  0  0
  3  4  1  0  0  0
  3 34  1  0  0  0
  3 35  1  0  0  0
  4  5  1  0  0  0
  4 36  1  0  0  0
  4 37  1  0  0  0
  5  6  1  0  0  0
  5 38  1  0  0  0
  5 39  1  0  0  0
  6  7  1  0  0  0
  6 40  1  0  0  0
  6 41  1  0  0  0
  7  8  1  0  0  0
  7 42  1  0  0  0
  7 43  1  0  0  0
  8  9  1  0  0  0
  8 44  1  0  0  0
  8 45  1  0  0  0
  9 10  1  0  0  0
  9 46  1  0  0  0
  9 47  1  0  0  0
 10 11  1  0  0  0
 10 48  1  0  0  0
 10 49  1  0  0  0
 11 12  1  0  0  0
 11 50  1  0  0  0
 11 51  1  0  0  0
 12 13  1  0  0  0
 12 52  1  0  0  0
 12 53  1  0  0  0
 13 14  1  0  0  0
 13 54  1  0  0  0
 13 55  1  0  0  0
 14 15  1  0  0  0
 14 56  1  0  0  0
 14 57  1  0  0  0
 15 16  1  0  0  0
 15 58  1  0  0  0
 15 59  1  0  0  0
 16 17  1  0  0  0
 16 60  1  0  0  0
 16 61  1  0  0  0
 17 18  1  0  0  0
 17 62  1  0  0  0
 17 63  1  0  0  0
 18 19  1  0  0  0
 18 64  1  0  0  0
 18 65  1  0  0  0
 19 20  1  0  0  0
 19 66  1  0  0  0
 19 67  1  0  0  0
 20 21  1  0  0  0
 20 68  1  0  0  0
 20 69  1  0  0  0
 21 22  1  0  0  0
 21 70  1  0  0  0
 21 71  1  0  0  0
 22 23  1  0  0  0
 22 72  1  0  0  0
 22 73  1  0  0  0
 23 24  1  0  0  0
 23 74  1  0  0  0
 23 75  1  0  0  0
 24 25  1  0  0  0
 24 76  1  0  0  0
 24 77  1  0  0  0
 25 26  2  0  0  0
 25 27  1  0  0  0
 27 28  1  0  0  0
 28 78  1  0  0  0
 28 79  1  0  0  0
 28 80  1  0  0  0
M  END
>  <i_m_Spin_multiplicity> (1)
1

>  <s_j_Task> (1)
Single Point

>  <s_j_QM_Method> (1)
DFT(b3lyp-d3)

>  <s_j_QM_Basis> (1)
cc-pvtz(-f)

>  <i_j_Number_of_canonical_orbitals> (1)
1104

>  <i_j_Geometry_convergence_category> (1)
3

>  <r_j_Gas_Phase_Energy> (1)
-1173.06689027298

>  <r_j_Final_Energy> (1)
-1173.06689027298

>  <r_j_HOMO> (1)
-0.283768651554019

>  <r_j_LUMO> (1)
-0.0394432553598294

>  <r_j_Polarizability> (1)
329.429900048087

>  <r_j_QM_Dipole_(debye)> (1)
1.98821463072869

>  <r_j_QM_Dipole_X_(debye)> (1)
-1.97923875495136

>  <r_j_QM_Dipole_Y_(debye)> (1)
0.0308727197715245

>  <r_j_QM_Dipole_Z_(debye)> (1)
0.18616724716267

>  <r_j_Lowest_Frequency_(cm-1)> (1)
15.5596351152054

>  <r_j_Highest_Frequency_(cm-1)> (1)
3108.10417913285

>  <r_j_2nd_Lowest_Frequency_(cm-1)> (1)
24.879504452386

>  <i_j_Num_Negative_Frequencies> (1)
0

>  <r_j_Zero_Point_Energy_(kcal/mol)> (1)
467.572377978439

>  <r_j_Entropy_(cal/mol/K)_298.15K_1.00E+00atm> (1)
203.886613475591

>  <r_j_Enthalpy_(kcal/mol)_298.15K_1.00E+00atm> (1)
21.6457382126981

>  <r_j_Free_Energy_(kcal/mol)_298.15K_1.00E+00atm> (1)
-39.1430555950494

>  <r_j_Internal_Energy_(kcal/mol)_298.15K_1.00E+00atm> (1)
21.0532526238708

>  <r_j_Heat_Capacity_(cal/mol/K)_298.15K_1.00E+00atm> (1)
128.103670105669

>  <r_j_ln(Q)_298.15K_1.00E+00atm> (1)
66.0658357488939

>  <r_j_Total_Internal_Energy_(au)_298.15K_1.00E+00atm> (1)
-1172.28821576054

>  <r_j_Total_Enthalpy_(au)_298.15K_1.00E+00atm> (1)
-1172.28727157465

>  <r_j_Total_Free_Energy_(au)_298.15K_1.00E+00atm> (1)
-1172.38414468448

>  <r_lp_tautomer_probability> (1)
1

>  <r_epik_Ionization_Penalty> (1)
  0.0000

>  <r_epik_Ionization_Penalty_Charging> (1)
  0.0000

>  <r_epik_Ionization_Penalty_Neutral> (1)
  0.0000

>  <r_epik_State_Penalty> (1)
  0.0000

>  <r_epik_Charging_Adjusted_Penalty> (1)
0

>  <i_epik_Tot_Q> (1)
0

>  <i_epik_Tot_abs_Q> (1)
0

>  <s_lp_Force_Field> (1)
S-OPLS

>  <r_lp_Energy> (1)
14.570223

>  <b_lp_Chiralities_Consistent> (1)
1

>  <s_epik_Chemistry_Notes> (1)
This compound has an ester and may undergo hydrolysis at high or low pH.

$$$$
