41971_Nonadiene
                    3D
 Schrodinger Suite 2021-3.
 25 24  0  0  1  0            999 V2000
   -2.2421    1.4214   -0.1684 C   0  0  0  0  0  0
   -0.7112    1.4624   -0.1715 C   0  0  0  0  0  0
   -0.0747    0.0815    0.0246 C   0  0  0  0  0  0
    1.4572    0.1147    0.0287 C   0  0  0  0  0  0
    2.0911   -1.2745    0.2381 C   0  0  0  0  0  0
    3.5905   -1.2372    0.2053 C   0  0  0  0  0  0
    4.3986   -1.5509    1.2309 C   0  0  0  0  0  0
    5.8521   -1.4817    1.1827 C   0  0  0  0  0  0
    6.6635   -1.7898    2.2050 C   0  0  0  0  0  0
   -2.6721    2.4184   -0.3092 H   0  0  0  0  0  0
   -2.6236    1.0242    0.7793 H   0  0  0  0  0  0
   -2.6210    0.7781   -0.9711 H   0  0  0  0  0  0
   -0.3556    1.8931   -1.1174 H   0  0  0  0  0  0
   -0.3591    2.1374    0.6203 H   0  0  0  0  0  0
   -0.4320   -0.3514    0.9700 H   0  0  0  0  0  0
   -0.4232   -0.5957   -0.7686 H   0  0  0  0  0  0
    1.8172    0.5386   -0.9192 H   0  0  0  0  0  0
    1.8114    0.7903    0.8183 H   0  0  0  0  0  0
    1.7472   -1.6940    1.1922 H   0  0  0  0  0  0
    1.7218   -1.9480   -0.5501 H   0  0  0  0  0  0
    4.0400   -0.9036   -0.7320 H   0  0  0  0  0  0
    3.9570   -1.8803    2.1726 H   0  0  0  0  0  0
    6.2877   -1.1521    0.2390 H   0  0  0  0  0  0
    6.2696   -2.1222    3.1624 H   0  0  0  0  0  0
    7.7429   -1.7197    2.1189 H   0  0  0  0  0  0
  1  2  1  0  0  0
  1 10  1  0  0  0
  1 11  1  0  0  0
  1 12  1  0  0  0
  2  3  1  0  0  0
  2 13  1  0  0  0
  2 14  1  0  0  0
  3  4  1  0  0  0
  3 15  1  0  0  0
  3 16  1  0  0  0
  4  5  1  0  0  0
  4 17  1  0  0  0
  4 18  1  0  0  0
  5  6  1  0  0  0
  5 19  1  0  0  0
  5 20  1  0  0  0
  6  7  2  0  0  0
  6 21  1  0  0  0
  7  8  1  0  0  0
  7 22  1  0  0  0
  8  9  2  0  0  0
  8 23  1  0  0  0
  9 24  1  0  0  0
  9 25  1  0  0  0
M  END
>  <i_m_Spin_multiplicity> (1)
1

>  <s_j_Task> (1)
Single Point

>  <s_j_QM_Method> (1)
DFT(b3lyp-d3)

>  <s_j_QM_Basis> (1)
cc-pvtz(-f)

>  <i_j_Number_of_canonical_orbitals> (1)
347

>  <i_j_Geometry_convergence_category> (1)
0

>  <r_j_Gas_Phase_Energy> (1)
-352.706113319902

>  <r_j_Final_Energy> (1)
-352.706113319902

>  <r_j_HOMO> (1)
-0.240845733619467

>  <r_j_LUMO> (1)
-0.0428340801697125

>  <r_j_Polarizability> (1)
119.156322186606

>  <r_j_QM_Dipole_(debye)> (1)
0.715783161141212

>  <r_j_QM_Dipole_X_(debye)> (1)
-0.61101476867146

>  <r_j_QM_Dipole_Y_(debye)> (1)
0.223102892685746

>  <r_j_QM_Dipole_Z_(debye)> (1)
-0.298716563842587

>  <r_j_Lowest_Frequency_(cm-1)> (1)
61.913916191616

>  <r_j_Highest_Frequency_(cm-1)> (1)
3179.32449038301

>  <r_j_2nd_Lowest_Frequency_(cm-1)> (1)
99.467507889373

>  <i_j_Num_Negative_Frequencies> (1)
0

>  <r_j_Zero_Point_Energy_(kcal/mol)> (1)
142.436228260358

>  <r_j_Entropy_(cal/mol/K)_298.15K_1.00E+00atm> (1)
99.4564166968279

>  <r_j_Enthalpy_(kcal/mol)_298.15K_1.00E+00atm> (1)
7.26891084037244

>  <r_j_Free_Energy_(kcal/mol)_298.15K_1.00E+00atm> (1)
-22.3840197977868

>  <r_j_Internal_Energy_(kcal/mol)_298.15K_1.00E+00atm> (1)
6.67642525154517

>  <r_j_Heat_Capacity_(cal/mol/K)_298.15K_1.00E+00atm> (1)
39.5925434612641

>  <r_j_ln(Q)_298.15K_1.00E+00atm> (1)
37.7798552739354

>  <r_j_Total_Internal_Energy_(au)_298.15K_1.00E+00atm> (1)
-352.468487179357

>  <r_j_Total_Enthalpy_(au)_298.15K_1.00E+00atm> (1)
-352.467542993465

>  <r_j_Total_Free_Energy_(au)_298.15K_1.00E+00atm> (1)
-352.514797946666

>  <r_lp_tautomer_probability> (1)
1

>  <r_epik_Ionization_Penalty> (1)
  0.0000

>  <r_epik_Ionization_Penalty_Charging> (1)
  0.0000

>  <r_epik_Ionization_Penalty_Neutral> (1)
  0.0000

>  <r_epik_State_Penalty> (1)
  0.0000

>  <r_epik_Charging_Adjusted_Penalty> (1)
0

>  <i_epik_Tot_Q> (1)
0

>  <i_epik_Tot_abs_Q> (1)
0

>  <s_lp_Force_Field> (1)
S-OPLS

>  <r_lp_Energy> (1)
-0.5805

>  <b_lp_Chiralities_Consistent> (1)
1

$$$$
