42128_2,3,4,7,8-Pentachlorodibenzofuran
                    3D
 Schrodinger Suite 2021-3.
 21 23  0  0  1  0            999 V2000
   -1.5981    3.2062   -0.0367 C   0  0  0  0  0  0
   -0.4113    3.9395   -0.0492 C   0  0  0  0  0  0
   -0.0683    5.3483   -0.0346 C   0  0  0  0  0  0
   -0.7874    6.5415   -0.0022 C   0  0  0  0  0  0
   -0.0837    7.7424    0.0018 C   0  0  0  0  0  0
    1.3315    7.7741   -0.0259 C   0  0  0  0  0  0
    2.0594    6.5703   -0.0586 C   0  0  0  0  0  0
    1.3361    5.3835   -0.0621 C   0  0  0  0  0  0
    1.8830    4.1274   -0.0923 O   0  0  0  0  0  0
    0.8166    3.2577   -0.0843 C   0  0  0  0  0  0
    0.9186    1.8779   -0.1076 C   0  0  0  0  0  0
   -0.2766    1.1552   -0.0948 C   0  0  0  0  0  0
   -1.5266    1.8144   -0.0595 C   0  0  0  0  0  0
   -3.0242    0.9101   -0.0434 Cl  0  0  0  0  0  0
   -0.1745   -0.5879   -0.1236 Cl  0  0  0  0  0  0
    3.7945    6.5125   -0.0941 Cl  0  0  0  0  0  0
    2.1811    9.2905   -0.0202 Cl  0  0  0  0  0  0
   -1.0075    9.2278    0.0425 Cl  0  0  0  0  0  0
   -2.5656    3.6929   -0.0098 H   0  0  0  0  0  0
   -1.8702    6.5518    0.0195 H   0  0  0  0  0  0
    1.8767    1.3754   -0.1346 H   0  0  0  0  0  0
  1 13  1  0  0  0
  1  2  2  0  0  0
  1 19  1  0  0  0
  2 10  1  0  0  0
  2  3  1  0  0  0
  3  8  1  0  0  0
  3  4  2  0  0  0
  4  5  1  0  0  0
  4 20  1  0  0  0
  5  6  2  0  0  0
  5 18  1  0  0  0
  6  7  1  0  0  0
  6 17  1  0  0  0
  7  8  2  0  0  0
  7 16  1  0  0  0
  8  9  1  0  0  0
  9 10  1  0  0  0
 10 11  2  0  0  0
 11 12  1  0  0  0
 11 21  1  0  0  0
 12 13  2  0  0  0
 12 15  1  0  0  0
 13 14  1  0  0  0
M  END
>  <i_m_Spin_multiplicity> (1)
1

>  <s_j_Task> (1)
Single Point

>  <s_j_QM_Method> (1)
DFT(b3lyp-d3)

>  <s_j_QM_Basis> (1)
cc-pvtz(-f)

>  <i_j_Number_of_canonical_orbitals> (1)
450

>  <i_j_Geometry_convergence_category> (1)
3

>  <r_j_Gas_Phase_Energy> (1)
-2835.63839772024

>  <r_j_Final_Energy> (1)
-2835.63839772024

>  <r_j_HOMO> (1)
-0.221980358596718

>  <r_j_LUMO> (1)
-0.0566072776679988

>  <r_j_Polarizability> (1)
217.836980751208

>  <r_j_QM_Dipole_(debye)> (1)
0.590151685770363

>  <r_j_QM_Dipole_X_(debye)> (1)
-0.543623419500552

>  <r_j_QM_Dipole_Y_(debye)> (1)
-0.229555525309259

>  <r_j_QM_Dipole_Z_(debye)> (1)
0.00753994616151352

>  <r_j_Lowest_Frequency_(cm-1)> (1)
54.9795979943516

>  <r_j_Highest_Frequency_(cm-1)> (1)
3186.39024588838

>  <r_j_2nd_Lowest_Frequency_(cm-1)> (1)
60.1246755065699

>  <i_j_Num_Negative_Frequencies> (1)
0

>  <r_j_Zero_Point_Energy_(kcal/mol)> (1)
72.352749989709

>  <r_j_Entropy_(cal/mol/K)_298.15K_1.00E+00atm> (1)
122.2663282727

>  <r_j_Enthalpy_(kcal/mol)_298.15K_1.00E+00atm> (1)
9.77125675696728

>  <r_j_Free_Energy_(kcal/mol)_298.15K_1.00E+00atm> (1)
-26.6824490175383

>  <r_j_Internal_Energy_(kcal/mol)_298.15K_1.00E+00atm> (1)
9.17877116814001

>  <r_j_Heat_Capacity_(cal/mol/K)_298.15K_1.00E+00atm> (1)
55.2508529970574

>  <r_j_ln(Q)_298.15K_1.00E+00atm> (1)
45.0347645929274

>  <r_j_Total_Internal_Energy_(au)_298.15K_1.00E+00atm> (1)
-2835.50846897007

>  <r_j_Total_Enthalpy_(au)_298.15K_1.00E+00atm> (1)
-2835.50752478418

>  <r_j_Total_Free_Energy_(au)_298.15K_1.00E+00atm> (1)
-2835.56561746249

>  <r_lp_tautomer_probability> (1)
1

>  <r_epik_Ionization_Penalty> (1)
  0.0000

>  <r_epik_Ionization_Penalty_Charging> (1)
  0.0000

>  <r_epik_Ionization_Penalty_Neutral> (1)
  0.0000

>  <r_epik_State_Penalty> (1)
  0.0000

>  <r_epik_Charging_Adjusted_Penalty> (1)
0

>  <i_epik_Tot_Q> (1)
0

>  <i_epik_Tot_abs_Q> (1)
0

>  <s_lp_Force_Field> (1)
S-OPLS

>  <r_lp_Energy> (1)
21.7024

>  <b_lp_Chiralities_Consistent> (1)
1

$$$$
