422780_2-(Methylamino)-2-methyl-1-propanol
                    3D
 Schrodinger Suite 2021-3.
 21 20  0  0  1  0            999 V2000
   -0.5379   -0.7125    1.2636 C   0  0  0  0  0  0
    0.0685    0.0781    0.0984 C   0  0  0  0  0  0
   -0.4367    1.5159    0.0560 C   0  0  0  0  0  0
    1.6055   -0.0007    0.1181 C   0  0  0  0  0  0
    1.9319   -1.3513   -0.1840 O   0  0  0  0  0  0
   -0.3590   -0.6843   -1.1835 N   0  3  1  0  0  0
   -0.0792   -0.0569   -2.5173 C   0  0  0  0  0  0
   -0.2593   -0.2325    2.2044 H   0  0  0  0  0  0
   -0.1625   -1.7387    1.2871 H   0  0  0  0  0  0
   -1.6321   -0.7242    1.2150 H   0  0  0  0  0  0
   -0.1725    2.0062    0.9966 H   0  0  0  0  0  0
   -1.5267    1.5540   -0.0353 H   0  0  0  0  0  0
    0.0102    2.0975   -0.7539 H   0  0  0  0  0  0
    2.0412    0.6949   -0.6131 H   0  0  0  0  0  0
    1.9471    0.3031    1.1152 H   0  0  0  0  0  0
    2.8781   -1.5104   -0.0734 H   0  0  0  0  0  0
    0.1622   -1.5719   -1.1288 H   0  0  0  0  0  0
   -0.3824   -0.7589   -3.2949 H   0  0  0  0  0  0
    0.9890    0.1370   -2.5967 H   0  0  0  0  0  0
   -0.6453    0.8678   -2.6099 H   0  0  0  0  0  0
   -1.3566   -0.9014   -1.1107 H   0  0  0  0  0  0
  1  2  1  0  0  0
  1  8  1  0  0  0
  1  9  1  0  0  0
  1 10  1  0  0  0
  2  3  1  0  0  0
  2  4  1  0  0  0
  2  6  1  0  0  0
  3 11  1  0  0  0
  3 12  1  0  0  0
  3 13  1  0  0  0
  4  5  1  0  0  0
  4 14  1  0  0  0
  4 15  1  0  0  0
  5 16  1  0  0  0
  6  7  1  0  0  0
  6 17  1  0  0  0
  6 21  1  0  0  0
  7 18  1  0  0  0
  7 19  1  0  0  0
  7 20  1  0  0  0
M  END
>  <i_m_Spin_multiplicity> (1)
1

>  <s_j_Task> (1)
Single Point

>  <s_j_QM_Method> (1)
DFT(b3lyp-d3)

>  <s_j_QM_Basis> (1)
cc-pvtz(-f)

>  <i_j_Number_of_canonical_orbitals> (1)
286

>  <i_j_Geometry_convergence_category> (1)
0

>  <r_j_Gas_Phase_Energy> (1)
-328.847540766432

>  <r_j_Final_Energy> (1)
-328.847540766432

>  <r_j_HOMO> (1)
-0.455704596976903

>  <r_j_LUMO> (1)
-0.150698524251023

>  <r_j_Polarizability> (1)
69.0177647123372

>  <r_j_QM_Dipole_(debye)> (1)
2.14932033588731

>  <r_j_QM_Dipole_X_(debye)> (1)
-0.860676925527386

>  <r_j_QM_Dipole_Y_(debye)> (1)
-0.115415081803437

>  <r_j_QM_Dipole_Z_(debye)> (1)
-1.96608557672747

>  <r_j_Lowest_Frequency_(cm-1)> (1)
109.736843432094

>  <r_j_Highest_Frequency_(cm-1)> (1)
3782.33143269902

>  <r_j_2nd_Lowest_Frequency_(cm-1)> (1)
183.056653321134

>  <i_j_Num_Negative_Frequencies> (1)
0

>  <r_j_Zero_Point_Energy_(kcal/mol)> (1)
123.598789986432

>  <r_j_Entropy_(cal/mol/K)_298.15K_1.00E+00atm> (1)
87.4181438195074

>  <r_j_Enthalpy_(kcal/mol)_298.15K_1.00E+00atm> (1)
6.02244770011823

>  <r_j_Free_Energy_(kcal/mol)_298.15K_1.00E+00atm> (1)
-20.0412718796679

>  <r_j_Internal_Energy_(kcal/mol)_298.15K_1.00E+00atm> (1)
5.42996211129095

>  <r_j_Heat_Capacity_(cal/mol/K)_298.15K_1.00E+00atm> (1)
33.3093332040101

>  <r_j_ln(Q)_298.15K_1.00E+00atm> (1)
33.8257541746057

>  <r_j_Total_Internal_Energy_(au)_298.15K_1.00E+00atm> (1)
-328.64192036026

>  <r_j_Total_Enthalpy_(au)_298.15K_1.00E+00atm> (1)
-328.640976174368

>  <r_j_Total_Free_Energy_(au)_298.15K_1.00E+00atm> (1)
-328.68251135563

>  <r_epik_Ionization_Penalty> (1)
  0.0056

>  <r_epik_Ionization_Penalty_Charging> (1)
  0.0056

>  <r_epik_Ionization_Penalty_Neutral> (1)
  0.0000

>  <r_epik_State_Penalty> (1)
  0.0041

>  <r_epik_Charging_Adjusted_Penalty> (1)
0.00978234092575369

>  <i_epik_Tot_Q> (1)
1

>  <i_epik_Tot_abs_Q> (1)
1

>  <s_lp_Force_Field> (1)
S-OPLS

>  <r_lp_Energy> (1)
8.699368

>  <b_lp_Chiralities_Consistent> (1)
1

$$$$
