43250_22R-17a(H),21ß(H)-30-homohopane
                    3D
 Schrodinger Suite 2021-3.
 85 89  0  0  1  0            999 V2000
   -1.9706   -0.2729    1.8565 C   0  0  0  0  0  0
   -0.5772   -0.6890    1.3724 C   0  0  0  0  0  0
   -0.0693    0.0768    0.1323 C   0  0  0  0  0  0
   -0.9208   -0.2173   -1.1123 C   0  0  0  0  0  0
    1.4421   -0.1789   -0.0735 C   0  0  0  0  0  0
    1.8642   -1.6646   -0.3264 C   0  0  0  0  0  0
    2.9638   -1.6304   -1.4320 C   0  0  0  0  0  0
    3.4394   -0.1557   -1.4761 C   0  0  0  0  0  0
    2.0834    0.5548   -1.2593 C   0  0  0  0  0  0
    2.1674    2.0801   -1.2360 C   0  0  0  0  0  0
    3.1819    2.6119   -2.2910 C   0  0  0  0  0  0
    3.4902    1.6145   -3.4449 C   0  0  0  0  0  0
    4.1582    0.3551   -2.7821 C   0  0  0  0  0  0
    4.5182   -0.7095   -3.8253 C   0  0  0  0  0  0
    5.4686   -0.1206   -4.8787 C   0  0  0  0  0  0
    4.8883    1.1436   -5.5420 C   0  0  0  0  0  0
    4.5254    2.2555   -4.4905 C   0  0  0  0  0  0
    3.8492    3.4775   -5.2215 C   0  0  0  0  0  0
    4.0407    3.4939   -6.7509 C   0  0  0  0  0  0
    5.4956    3.1183   -7.0631 C   0  0  0  0  0  0
    5.6918    1.5834   -6.8430 C   0  0  0  0  0  0
    7.2189    1.3282   -6.7771 C   0  0  0  0  0  0
    7.9496    1.8736   -8.0191 C   0  0  0  0  0  0
    7.6662    3.3609   -8.2748 C   0  0  0  0  0  0
    6.1612    3.7413   -8.3293 C   0  0  0  0  0  0
    5.5218    3.3404   -9.6734 C   0  0  0  0  0  0
    6.0773    5.2819   -8.2329 C   0  0  0  0  0  0
    5.0953    0.7057   -7.9746 C   0  0  0  0  0  0
    5.7956    2.7783   -3.7710 C   0  0  0  0  0  0
    2.1609    1.2568   -4.1961 C   0  0  0  0  0  0
    4.4109    0.0751   -0.2940 C   0  0  0  0  0  0
   -2.2378   -0.7960    2.7807 H   0  0  0  0  0  0
   -2.7471   -0.4984    1.1187 H   0  0  0  0  0  0
   -2.0099    0.8038    2.0606 H   0  0  0  0  0  0
    0.1396   -0.5389    2.1910 H   0  0  0  0  0  0
   -0.5700   -1.7665    1.1589 H   0  0  0  0  0  0
   -0.1739    1.1512    0.3517 H   0  0  0  0  0  0
   -0.8379   -1.2666   -1.4172 H   0  0  0  0  0  0
   -0.6207    0.4012   -1.9635 H   0  0  0  0  0  0
   -1.9786   -0.0127   -0.9254 H   0  0  0  0  0  0
    1.9280    0.1691    0.8481 H   0  0  0  0  0  0
    2.2358   -2.1240    0.5945 H   0  0  0  0  0  0
    1.0148   -2.2741   -0.6495 H   0  0  0  0  0  0
    3.7781   -2.3349   -1.2325 H   0  0  0  0  0  0
    2.5284   -1.9110   -2.3965 H   0  0  0  0  0  0
    1.4817    0.2813   -2.1283 H   0  0  0  0  0  0
    1.1698    2.4987   -1.4136 H   0  0  0  0  0  0
    2.4656    2.4308   -0.2397 H   0  0  0  0  0  0
    2.8277    3.5644   -2.6995 H   0  0  0  0  0  0
    4.1202    2.8345   -1.7751 H   0  0  0  0  0  0
    5.1250    0.7199   -2.4247 H   0  0  0  0  0  0
    4.9951   -1.5666   -3.3349 H   0  0  0  0  0  0
    3.6214   -1.1024   -4.3209 H   0  0  0  0  0  0
    6.4344    0.1019   -4.4094 H   0  0  0  0  0  0
    5.6740   -0.8784   -5.6436 H   0  0  0  0  0  0
    3.9184    0.8297   -5.9410 H   0  0  0  0  0  0
    2.7819    3.5325   -4.9927 H   0  0  0  0  0  0
    4.2806    4.4028   -4.8214 H   0  0  0  0  0  0
    3.3463    2.7976   -7.2375 H   0  0  0  0  0  0
    3.7821    4.4874   -7.1289 H   0  0  0  0  0  0
    6.0810    3.5871   -6.2630 H   0  0  0  0  0  0
    7.6337    1.8070   -5.8811 H   0  0  0  0  0  0
    7.4283    0.2572   -6.6797 H   0  0  0  0  0  0
    9.0299    1.7282   -7.8966 H   0  0  0  0  0  0
    7.6732    1.2862   -8.9023 H   0  0  0  0  0  0
    8.1297    3.9429   -7.4650 H   0  0  0  0  0  0
    8.1581    3.6829   -9.2021 H   0  0  0  0  0  0
    5.8845    4.0002  -10.4698 H   0  0  0  0  0  0
    4.4316    3.4401   -9.6335 H   0  0  0  0  0  0
    5.7517    2.3182   -9.9729 H   0  0  0  0  0  0
    6.7283    5.7423   -8.9847 H   0  0  0  0  0  0
    6.3978    5.6414   -7.2483 H   0  0  0  0  0  0
    5.0630    5.6512   -8.4127 H   0  0  0  0  0  0
    5.7078    0.6818   -8.8747 H   0  0  0  0  0  0
    4.0964    1.0437   -8.2657 H   0  0  0  0  0  0
    5.0037   -0.3303   -7.6323 H   0  0  0  0  0  0
    6.5122    3.1785   -4.4890 H   0  0  0  0  0  0
    6.3194    2.0111   -3.1984 H   0  0  0  0  0  0
    5.5537    3.5937   -3.0844 H   0  0  0  0  0  0
    1.9119    0.1961   -4.1220 H   0  0  0  0  0  0
    2.1996    1.4819   -5.2637 H   0  0  0  0  0  0
    1.3094    1.8153   -3.7966 H   0  0  0  0  0  0
    4.6319    1.1385   -0.1552 H   0  0  0  0  0  0
    5.3597   -0.4369   -0.4915 H   0  0  0  0  0  0
    4.0280   -0.3117    0.6543 H   0  0  0  0  0  0
  1  2  1  0  0  0
  1 32  1  0  0  0
  1 33  1  0  0  0
  1 34  1  0  0  0
  2  3  1  0  0  0
  2 35  1  0  0  0
  2 36  1  0  0  0
  3  4  1  0  0  0
  3  5  1  0  0  0
  3 37  1  0  0  0
  4 38  1  0  0  0
  4 39  1  0  0  0
  4 40  1  0  0  0
  5  9  1  0  0  0
  5  6  1  0  0  0
  5 41  1  0  0  0
  6  7  1  0  0  0
  6 42  1  0  0  0
  6 43  1  0  0  0
  7  8  1  0  0  0
  7 44  1  0  0  0
  7 45  1  0  0  0
  8 13  1  0  0  0
  8  9  1  0  0  0
  8 31  1  0  0  0
  9 10  1  0  0  0
  9 46  1  0  0  0
 10 11  1  0  0  0
 10 47  1  0  0  0
 10 48  1  0  0  0
 11 12  1  0  0  0
 11 49  1  0  0  0
 11 50  1  0  0  0
 12 17  1  0  0  0
 12 13  1  0  0  0
 12 30  1  0  0  0
 13 14  1  0  0  0
 13 51  1  0  0  0
 14 15  1  0  0  0
 14 52  1  0  0  0
 14 53  1  0  0  0
 15 16  1  0  0  0
 15 54  1  0  0  0
 15 55  1  0  0  0
 16 21  1  0  0  0
 16 17  1  0  0  0
 16 56  1  0  0  0
 17 18  1  0  0  0
 17 29  1  0  0  0
 18 19  1  0  0  0
 18 57  1  0  0  0
 18 58  1  0  0  0
 19 20  1  0  0  0
 19 59  1  0  0  0
 19 60  1  0  0  0
 20 25  1  0  0  0
 20 21  1  0  0  0
 20 61  1  0  0  0
 21 22  1  0  0  0
 21 28  1  0  0  0
 22 23  1  0  0  0
 22 62  1  0  0  0
 22 63  1  0  0  0
 23 24  1  0  0  0
 23 64  1  0  0  0
 23 65  1  0  0  0
 24 25  1  0  0  0
 24 66  1  0  0  0
 24 67  1  0  0  0
 25 26  1  0  0  0
 25 27  1  0  0  0
 26 68  1  0  0  0
 26 69  1  0  0  0
 26 70  1  0  0  0
 27 71  1  0  0  0
 27 72  1  0  0  0
 27 73  1  0  0  0
 28 74  1  0  0  0
 28 75  1  0  0  0
 28 76  1  0  0  0
 29 77  1  0  0  0
 29 78  1  0  0  0
 29 79  1  0  0  0
 30 80  1  0  0  0
 30 81  1  0  0  0
 30 82  1  0  0  0
 31 83  1  0  0  0
 31 84  1  0  0  0
 31 85  1  0  0  0
M  END
>  <i_m_Spin_multiplicity> (1)
1

>  <s_j_Task> (1)
Single Point

>  <s_j_QM_Method> (1)
DFT(b3lyp-d3)

>  <s_j_QM_Basis> (1)
cc-pvtz(-f)

>  <i_j_Number_of_canonical_orbitals> (1)
1175

>  <i_j_Geometry_convergence_category> (1)
3

>  <r_j_Gas_Phase_Energy> (1)
-1214.31240670189

>  <r_j_Final_Energy> (1)
-1214.31240670189

>  <r_j_HOMO> (1)
-0.219368240592572

>  <r_j_LUMO> (1)
0.0285558513637135

>  <r_j_Polarizability> (1)
345.636630167645

>  <r_j_QM_Dipole_(debye)> (1)
0.127584869746056

>  <r_j_QM_Dipole_X_(debye)> (1)
0.124266655719846

>  <r_j_QM_Dipole_Y_(debye)> (1)
0.0269660978672508

>  <r_j_QM_Dipole_Z_(debye)> (1)
0.0104176211361997

>  <r_j_Lowest_Frequency_(cm-1)> (1)
45.6832591332819

>  <r_j_Highest_Frequency_(cm-1)> (1)
3106.0096092199

>  <r_j_2nd_Lowest_Frequency_(cm-1)> (1)
59.9472405063957

>  <i_j_Num_Negative_Frequencies> (1)
0

>  <r_j_Zero_Point_Energy_(kcal/mol)> (1)
499.611460133905

>  <r_j_Entropy_(cal/mol/K)_298.15K_1.00E+00atm> (1)
175.631065087026

>  <r_j_Enthalpy_(kcal/mol)_298.15K_1.00E+00atm> (1)
19.2675212624396

>  <r_j_Free_Energy_(kcal/mol)_298.15K_1.00E+00atm> (1)
-33.0968807932573

>  <r_j_Internal_Energy_(kcal/mol)_298.15K_1.00E+00atm> (1)
18.6750356736124

>  <r_j_Heat_Capacity_(cal/mol/K)_298.15K_1.00E+00atm> (1)
131.206068148438

>  <r_j_ln(Q)_298.15K_1.00E+00atm> (1)
55.8610731085747

>  <r_j_Total_Internal_Energy_(au)_298.15K_1.00E+00atm> (1)
-1213.48646459172

>  <r_j_Total_Enthalpy_(au)_298.15K_1.00E+00atm> (1)
-1213.48552040582

>  <r_j_Total_Free_Energy_(au)_298.15K_1.00E+00atm> (1)
-1213.56896839276

>  <r_lp_tautomer_probability> (1)
1

>  <r_epik_Ionization_Penalty> (1)
  0.0000

>  <r_epik_Ionization_Penalty_Charging> (1)
  0.0000

>  <r_epik_Ionization_Penalty_Neutral> (1)
  0.0000

>  <r_epik_State_Penalty> (1)
  0.0000

>  <r_epik_Charging_Adjusted_Penalty> (1)
0

>  <i_epik_Tot_Q> (1)
0

>  <i_epik_Tot_abs_Q> (1)
0

>  <s_lp_Force_Field> (1)
S-OPLS

>  <r_lp_Energy> (1)
112.61357

>  <b_lp_Chiralities_Consistent> (1)
1

$$$$
