442381_Juvabione
                    3D
 Schrodinger Suite 2021-3.
 45 45  0  0  1  0            999 V2000
   -1.2638   -3.4837    1.4898 C   0  0  0  0  0  0
   -0.4158   -2.2159    1.3254 C   0  0  0  0  0  0
   -0.4111   -1.3847    2.6161 C   0  0  0  0  0  0
   -0.9313   -1.3840    0.1268 C   0  0  0  0  0  0
   -0.1543   -0.0969   -0.1143 C   0  0  0  0  0  0
   -0.6963    0.9915   -0.0397 O   0  0  0  0  0  0
    1.3343   -0.2396   -0.4194 C   0  0  0  0  0  0
    2.0102    1.0675   -0.8624 C   0  0  0  0  0  0
    1.5615    1.4528   -2.2808 C   0  0  0  0  0  0
    3.5509    1.0387   -0.7242 C   0  0  0  0  0  0
    4.0331    0.9219    0.7325 C   0  0  0  0  0  0
    5.5469    1.1553    0.8411 C   0  0  0  0  0  0
    6.3053    0.3669   -0.2041 C   0  0  0  0  0  0
    5.7029   -0.1794   -1.2730 C   0  0  0  0  0  0
    4.2373   -0.0493   -1.5711 C   0  0  0  0  0  0
    7.7775    0.1752   -0.0761 C   0  0  0  0  0  0
    8.4845   -0.4567   -0.8391 O   0  0  0  0  0  0
    8.2686    0.8079    1.0201 O   0  0  0  0  0  0
    9.6856    0.6773    1.2111 C   0  0  0  0  0  0
   -2.3071   -3.2258    1.7072 H   0  0  0  0  0  0
   -0.8932   -4.0995    2.3160 H   0  0  0  0  0  0
   -1.2521   -4.0948    0.5809 H   0  0  0  0  0  0
    0.6157   -2.5271    1.1090 H   0  0  0  0  0  0
   -1.4237   -1.0388    2.8539 H   0  0  0  0  0  0
    0.2253   -0.4975    2.5311 H   0  0  0  0  0  0
   -0.0492   -1.9775    3.4626 H   0  0  0  0  0  0
   -0.8797   -1.9969   -0.7838 H   0  0  0  0  0  0
   -1.9781   -1.1058    0.2877 H   0  0  0  0  0  0
    1.7981   -0.6313    0.4957 H   0  0  0  0  0  0
    1.4587   -1.0345   -1.1671 H   0  0  0  0  0  0
    1.6450    1.8501   -0.1856 H   0  0  0  0  0  0
    1.8220    0.6784   -3.0117 H   0  0  0  0  0  0
    2.0340    2.3874   -2.6021 H   0  0  0  0  0  0
    0.4785    1.5961   -2.3100 H   0  0  0  0  0  0
    3.9114    2.0085   -1.0984 H   0  0  0  0  0  0
    3.4980    1.6370    1.3683 H   0  0  0  0  0  0
    3.8043   -0.0801    1.1195 H   0  0  0  0  0  0
    5.7762    2.2237    0.7269 H   0  0  0  0  0  0
    5.9071    0.8852    1.8390 H   0  0  0  0  0  0
    6.3162   -0.7495   -1.9669 H   0  0  0  0  0  0
    3.7624   -1.0277   -1.3996 H   0  0  0  0  0  0
    4.1058    0.1513   -2.6417 H   0  0  0  0  0  0
    9.9154    1.2392    2.1167 H   0  0  0  0  0  0
   10.2297    1.0858    0.3552 H   0  0  0  0  0  0
    9.9637   -0.3737    1.3288 H   0  0  0  0  0  0
  1  2  1  0  0  0
  1 20  1  0  0  0
  1 21  1  0  0  0
  1 22  1  0  0  0
  2  3  1  0  0  0
  2  4  1  0  0  0
  2 23  1  0  0  0
  3 24  1  0  0  0
  3 25  1  0  0  0
  3 26  1  0  0  0
  4  5  1  0  0  0
  4 27  1  0  0  0
  4 28  1  0  0  0
  5  6  2  0  0  0
  5  7  1  0  0  0
  7  8  1  0  0  0
  7 29  1  0  0  0
  7 30  1  0  0  0
  8  9  1  0  0  0
  8 10  1  0  0  0
  8 31  1  0  0  0
  9 32  1  0  0  0
  9 33  1  0  0  0
  9 34  1  0  0  0
 10 15  1  0  0  0
 10 11  1  0  0  0
 10 35  1  0  0  0
 11 12  1  0  0  0
 11 36  1  0  0  0
 11 37  1  0  0  0
 12 13  1  0  0  0
 12 38  1  0  0  0
 12 39  1  0  0  0
 13 14  2  0  0  0
 13 16  1  0  0  0
 14 15  1  0  0  0
 14 40  1  0  0  0
 15 41  1  0  0  0
 15 42  1  0  0  0
 16 17  2  0  0  0
 16 18  1  0  0  0
 18 19  1  0  0  0
 19 43  1  0  0  0
 19 44  1  0  0  0
 19 45  1  0  0  0
M  END
>  <i_m_Spin_multiplicity> (1)
1

>  <s_j_Task> (1)
Single Point

>  <s_j_QM_Method> (1)
DFT(b3lyp-d3)

>  <s_j_QM_Basis> (1)
cc-pvtz(-f)

>  <i_j_Number_of_canonical_orbitals> (1)
664

>  <i_j_Geometry_convergence_category> (1)
0

>  <r_j_Gas_Phase_Energy> (1)
-851.380285898944

>  <r_j_Final_Energy> (1)
-851.380285898944

>  <r_j_HOMO> (1)
-0.253059554615799

>  <r_j_LUMO> (1)
-0.0397609006022711

>  <r_j_Polarizability> (1)
196.91402685103

>  <r_j_QM_Dipole_(debye)> (1)
1.90065135400582

>  <r_j_QM_Dipole_X_(debye)> (1)
-0.221350312569471

>  <r_j_QM_Dipole_Y_(debye)> (1)
-1.41785969257154

>  <r_j_QM_Dipole_Z_(debye)> (1)
1.24625579268082

>  <r_j_Lowest_Frequency_(cm-1)> (1)
34.8738194418924

>  <r_j_Highest_Frequency_(cm-1)> (1)
3124.64923949532

>  <r_j_2nd_Lowest_Frequency_(cm-1)> (1)
60.3343493000955

>  <i_j_Num_Negative_Frequencies> (1)
0

>  <r_j_Zero_Point_Energy_(kcal/mol)> (1)
248.748118042506

>  <r_j_Entropy_(cal/mol/K)_298.15K_1.00E+00atm> (1)
141.425008739726

>  <r_j_Enthalpy_(kcal/mol)_298.15K_1.00E+00atm> (1)
13.05144350043

>  <r_j_Free_Energy_(kcal/mol)_298.15K_1.00E+00atm> (1)
-29.1144228553192

>  <r_j_Internal_Energy_(kcal/mol)_298.15K_1.00E+00atm> (1)
12.4589579116027

>  <r_j_Heat_Capacity_(cal/mol/K)_298.15K_1.00E+00atm> (1)
77.6863107473828

>  <r_j_ln(Q)_298.15K_1.00E+00atm> (1)
49.1394616246217

>  <r_j_Total_Internal_Energy_(au)_298.15K_1.00E+00atm> (1)
-850.964025924487

>  <r_j_Total_Enthalpy_(au)_298.15K_1.00E+00atm> (1)
-850.963081738594

>  <r_j_Total_Free_Energy_(au)_298.15K_1.00E+00atm> (1)
-851.030277324273

>  <r_lp_tautomer_probability> (1)
1

>  <r_epik_Ionization_Penalty> (1)
  0.0000

>  <r_epik_Ionization_Penalty_Charging> (1)
  0.0000

>  <r_epik_Ionization_Penalty_Neutral> (1)
  0.0000

>  <r_epik_State_Penalty> (1)
  0.0000

>  <r_epik_Charging_Adjusted_Penalty> (1)
0

>  <i_epik_Tot_Q> (1)
0

>  <i_epik_Tot_abs_Q> (1)
0

>  <s_lp_Force_Field> (1)
S-OPLS

>  <r_lp_Energy> (1)
11.3947

>  <b_lp_Chiralities_Consistent> (1)
1

>  <s_epik_Chemistry_Notes> (1)
This compound has an ester and may undergo hydrolysis at high or low pH.

$$$$
