44368_7-methylbenzo(a)pyrene
                    3D
 Schrodinger Suite 2021-3.
 35 39  0  0  1  0            999 V2000
   -0.0459   -0.0948    0.0002 C   0  0  0  0  0  0
    1.4668    0.0052    0.0000 C   0  0  0  0  0  0
    2.1723    1.2565    0.0000 C   0  0  0  0  0  0
    1.4948    2.5014    0.0000 C   0  0  0  0  0  0
    2.1617    3.7130    0.0000 C   0  0  0  0  0  0
    1.4474    4.9656   -0.0001 C   0  0  0  0  0  0
    2.0999    6.1541   -0.0001 C   0  0  0  0  0  0
    3.5401    6.2151    0.0000 C   0  0  0  0  0  0
    4.2786    4.9911    0.0000 C   0  0  0  0  0  0
    3.5991    3.7340    0.0000 C   0  0  0  0  0  0
    4.3239    2.5164    0.0000 C   0  0  0  0  0  0
    3.6134    1.2594   -0.0001 C   0  0  0  0  0  0
    4.2910    0.0140   -0.0002 C   0  0  0  0  0  0
    3.5959   -1.1731   -0.0001 C   0  0  0  0  0  0
    2.1881   -1.1725    0.0000 C   0  0  0  0  0  0
    5.7544    2.5970    0.0001 C   0  0  0  0  0  0
    6.4115    3.7933    0.0001 C   0  0  0  0  0  0
    5.7029    5.0328    0.0001 C   0  0  0  0  0  0
    6.3591    6.2806    0.0001 C   0  0  0  0  0  0
    5.6310    7.4616    0.0001 C   0  0  0  0  0  0
    4.2323    7.4309    0.0000 C   0  0  0  0  0  0
   -0.5546    0.8681    0.0002 H   0  0  0  0  0  0
   -0.3923   -0.6455    0.8816 H   0  0  0  0  0  0
   -0.3925   -0.6455   -0.8811 H   0  0  0  0  0  0
    0.4116    2.5244    0.0000 H   0  0  0  0  0  0
    0.3610    4.9343   -0.0001 H   0  0  0  0  0  0
    1.5447    7.0884   -0.0001 H   0  0  0  0  0  0
    5.3739   -0.0159   -0.0002 H   0  0  0  0  0  0
    4.1335   -2.1168   -0.0002 H   0  0  0  0  0  0
    1.6544   -2.1198    0.0000 H   0  0  0  0  0  0
    6.3424    1.6877    0.0001 H   0  0  0  0  0  0
    7.4981    3.8164    0.0002 H   0  0  0  0  0  0
    7.4455    6.3049    0.0002 H   0  0  0  0  0  0
    6.1483    8.4164    0.0001 H   0  0  0  0  0  0
    3.6685    8.3599    0.0000 H   0  0  0  0  0  0
  1  2  1  0  0  0
  1 22  1  0  0  0
  1 23  1  0  0  0
  1 24  1  0  0  0
  2 15  1  0  0  0
  2  3  2  0  0  0
  3 12  1  0  0  0
  3  4  1  0  0  0
  4  5  2  0  0  0
  4 25  1  0  0  0
  5 10  1  0  0  0
  5  6  1  0  0  0
  6  7  2  0  0  0
  6 26  1  0  0  0
  7  8  1  0  0  0
  7 27  1  0  0  0
  8 21  1  0  0  0
  8  9  2  0  0  0
  9 18  1  0  0  0
  9 10  1  0  0  0
 10 11  2  0  0  0
 11 12  1  0  0  0
 11 16  1  0  0  0
 12 13  2  0  0  0
 13 14  1  0  0  0
 13 28  1  0  0  0
 14 15  2  0  0  0
 14 29  1  0  0  0
 15 30  1  0  0  0
 16 17  2  0  0  0
 16 31  1  0  0  0
 17 18  1  0  0  0
 17 32  1  0  0  0
 18 19  2  0  0  0
 19 20  1  0  0  0
 19 33  1  0  0  0
 20 21  2  0  0  0
 20 34  1  0  0  0
 21 35  1  0  0  0
M  END
>  <i_m_Spin_multiplicity> (1)
1

>  <s_j_Task> (1)
Single Point

>  <s_j_QM_Method> (1)
DFT(b3lyp-d3)

>  <s_j_QM_Basis> (1)
cc-pvtz(-f)

>  <i_j_Number_of_canonical_orbitals> (1)
587

>  <i_j_Geometry_convergence_category> (1)
3

>  <r_j_Gas_Phase_Energy> (1)
-808.988214841944

>  <r_j_Final_Energy> (1)
-808.988214841944

>  <r_j_HOMO> (1)
-0.175511855350968

>  <r_j_LUMO> (1)
-0.0543714316720462

>  <r_j_Polarizability> (1)
270.053722858667

>  <r_j_QM_Dipole_(debye)> (1)
0.507073193561008

>  <r_j_QM_Dipole_X_(debye)> (1)
-0.428878747581189

>  <r_j_QM_Dipole_Y_(debye)> (1)
-0.27052946344079

>  <r_j_QM_Dipole_Z_(debye)> (1)
0.000230025626152154

>  <r_j_Lowest_Frequency_(cm-1)> (1)
-12.2931808554934

>  <r_j_Highest_Frequency_(cm-1)> (1)
3174.65886591852

>  <r_j_2nd_Lowest_Frequency_(cm-1)> (1)
75.2451742200382

>  <i_j_Num_Negative_Frequencies> (1)
1

>  <r_j_Zero_Point_Energy_(kcal/mol)> (1)
175.868642808018

>  <r_j_Entropy_(cal/mol/K)_298.15K_1.00E+00atm> (1)
112.378214981183

>  <r_j_Enthalpy_(kcal/mol)_298.15K_1.00E+00atm> (1)
9.00865642065106

>  <r_j_Free_Energy_(kcal/mol)_298.15K_1.00E+00atm> (1)
-24.4969083759886

>  <r_j_Internal_Energy_(kcal/mol)_298.15K_1.00E+00atm> (1)
8.41617083182378

>  <r_j_Heat_Capacity_(cal/mol/K)_298.15K_1.00E+00atm> (1)
59.6453962847213

>  <r_j_ln(Q)_298.15K_1.00E+00atm> (1)
41.3459986840796

>  <r_j_Total_Internal_Energy_(au)_298.15K_1.00E+00atm> (1)
-808.69453829609

>  <r_j_Total_Enthalpy_(au)_298.15K_1.00E+00atm> (1)
-808.693594110198

>  <r_j_Total_Free_Energy_(au)_298.15K_1.00E+00atm> (1)
-808.746988626773

>  <r_lp_tautomer_probability> (1)
1

>  <r_epik_Ionization_Penalty> (1)
  0.0000

>  <r_epik_Ionization_Penalty_Charging> (1)
  0.0000

>  <r_epik_Ionization_Penalty_Neutral> (1)
  0.0000

>  <r_epik_State_Penalty> (1)
  0.0000

>  <r_epik_Charging_Adjusted_Penalty> (1)
0

>  <i_epik_Tot_Q> (1)
0

>  <i_epik_Tot_abs_Q> (1)
0

>  <s_lp_Force_Field> (1)
S-OPLS

>  <r_lp_Energy> (1)
53.4139

>  <b_lp_Chiralities_Consistent> (1)
1

$$$$
