4618_Oxydemeton-methyl
                    3D
 Schrodinger Suite 2021-3.
 28 27  0  0  1  0            999 V2000
   -4.4192    2.0701    0.8740 C   0  0  0  0  0  0
   -3.0292    1.4924    1.1226 C   0  0  0  0  0  0
   -2.1825    1.2011   -0.4961 S   0  0  1  0  0  0
   -2.0013    2.5500   -1.1657 O   0  0  0  0  0  0
   -0.5448    0.7443    0.2394 C   0  0  0  0  0  0
    0.4631    0.5901   -0.8900 C   0  0  0  0  0  0
    2.2062    0.3901   -0.3003 S   0  0  0  0  0  0
    2.0682   -1.5465    0.4973 P   0  0  1  0  0  0
    0.7613   -2.2107    0.2430 O   0  0  0  0  0  0
    3.3585   -2.3581   -0.0472 O   0  0  0  0  0  0
    3.2943   -2.9211   -1.3729 C   0  0  0  0  0  0
    2.5059   -1.3234    2.0285 O   0  0  0  0  0  0
    2.6635   -2.4924    2.8668 C   0  0  0  0  0  0
   -4.9063    2.3095    1.8240 H   0  0  0  0  0  0
   -5.0557    1.3623    0.3334 H   0  0  0  0  0  0
   -4.3427    2.9864    0.2824 H   0  0  0  0  0  0
   -2.4056    2.1887    1.6932 H   0  0  0  0  0  0
   -3.0604    0.5286    1.6432 H   0  0  0  0  0  0
   -0.2513    1.5481    0.9212 H   0  0  0  0  0  0
   -0.6703   -0.1950    0.7847 H   0  0  0  0  0  0
    0.2120   -0.2593   -1.5278 H   0  0  0  0  0  0
    0.4870    1.4982   -1.4989 H   0  0  0  0  0  0
    4.1882   -3.5348   -1.4896 H   0  0  0  0  0  0
    3.2966   -2.1235   -2.1237 H   0  0  0  0  0  0
    2.3969   -3.5352   -1.4862 H   0  0  0  0  0  0
    2.8414   -2.1194    3.8756 H   0  0  0  0  0  0
    3.5176   -3.0858    2.5298 H   0  0  0  0  0  0
    1.7543   -3.1005    2.8507 H   0  0  0  0  0  0
  1  2  1  0  0  0
  1 14  1  0  0  0
  1 15  1  0  0  0
  1 16  1  0  0  0
  2  3  1  0  0  0
  2 17  1  0  0  0
  2 18  1  0  0  0
  3  4  2  0  0  0
  3  5  1  0  0  0
  5  6  1  0  0  0
  5 19  1  0  0  0
  5 20  1  0  0  0
  6  7  1  0  0  0
  6 21  1  0  0  0
  6 22  1  0  0  0
  7  8  1  0  0  0
  8  9  2  0  0  0
  8 10  1  0  0  0
  8 12  1  0  0  0
 10 11  1  0  0  0
 11 23  1  0  0  0
 11 24  1  0  0  0
 11 25  1  0  0  0
 12 13  1  0  0  0
 13 26  1  0  0  0
 13 27  1  0  0  0
 13 28  1  0  0  0
M  END
>  <i_m_Spin_multiplicity> (1)
1

>  <s_j_Task> (1)
Single Point

>  <s_j_QM_Method> (1)
DFT(b3lyp-d3)

>  <s_j_QM_Basis> (1)
cc-pvtz(-f)

>  <i_j_Number_of_canonical_orbitals> (1)
446

>  <i_j_Geometry_convergence_category> (1)
3

>  <r_j_Gas_Phase_Energy> (1)
-1676.65944039646

>  <r_j_Final_Energy> (1)
-1676.65944039646

>  <r_j_HOMO> (1)
-0.222721886333323

>  <r_j_LUMO> (1)
-0.0129902148953909

>  <r_j_Polarizability> (1)
151.49907628833

>  <r_j_QM_Dipole_(debye)> (1)
4.12517591054704

>  <r_j_QM_Dipole_X_(debye)> (1)
1.23755038490575

>  <r_j_QM_Dipole_Y_(debye)> (1)
-3.06139299899155

>  <r_j_QM_Dipole_Z_(debye)> (1)
2.47253275883308

>  <r_j_Lowest_Frequency_(cm-1)> (1)
36.1905528428127

>  <r_j_Highest_Frequency_(cm-1)> (1)
3102.0609764648

>  <r_j_2nd_Lowest_Frequency_(cm-1)> (1)
49.9356944006876

>  <i_j_Num_Negative_Frequencies> (1)
0

>  <r_j_Zero_Point_Energy_(kcal/mol)> (1)
138.510280709607

>  <r_j_Entropy_(cal/mol/K)_298.15K_1.00E+00atm> (1)
129.9225500152

>  <r_j_Enthalpy_(kcal/mol)_298.15K_1.00E+00atm> (1)
11.1795398777081

>  <r_j_Free_Energy_(kcal/mol)_298.15K_1.00E+00atm> (1)
-27.5568684093238

>  <r_j_Internal_Energy_(kcal/mol)_298.15K_1.00E+00atm> (1)
10.5870542888809

>  <r_j_Heat_Capacity_(cal/mol/K)_298.15K_1.00E+00atm> (1)
60.2269492512617

>  <r_j_ln(Q)_298.15K_1.00E+00atm> (1)
46.5106138089671

>  <r_j_Total_Internal_Energy_(au)_298.15K_1.00E+00atm> (1)
-1676.42183866752

>  <r_j_Total_Enthalpy_(au)_298.15K_1.00E+00atm> (1)
-1676.42089448163

>  <r_j_Total_Free_Energy_(au)_298.15K_1.00E+00atm> (1)
-1676.48262487796

>  <r_lp_tautomer_probability> (1)
1

>  <r_epik_Ionization_Penalty> (1)
  0.0000

>  <r_epik_Ionization_Penalty_Charging> (1)
  0.0000

>  <r_epik_Ionization_Penalty_Neutral> (1)
  0.0000

>  <r_epik_State_Penalty> (1)
  0.0000

>  <r_epik_Charging_Adjusted_Penalty> (1)
0

>  <i_epik_Tot_Q> (1)
0

>  <i_epik_Tot_abs_Q> (1)
0

>  <s_lp_Force_Field> (1)
S-OPLS

>  <r_lp_Energy> (1)
-2.597393

>  <b_lp_Chiralities_Consistent> (1)
1

$$$$
