4668_Palmitoleic acid
                    3D
 Schrodinger Suite 2021-3.
 47 46  0  0  1  0            999 V2000
   -6.8893    5.3309   -0.6855 C   0  0  0  0  0  0
   -6.2936    4.0430   -0.1093 C   0  0  0  0  0  0
   -4.7654    3.9824   -0.2207 C   0  0  0  0  0  0
   -4.1667    2.6938    0.3534 C   0  0  0  0  0  0
   -2.6396    2.6212    0.2451 C   0  0  0  0  0  0
   -2.0608    1.3153    0.8192 C   0  0  0  0  0  0
   -0.5594    1.2494    0.7555 C   0  0  0  0  0  0
    0.1412    0.3519    0.0584 C   0  0  0  0  0  0
    1.6392    0.2385    0.0159 C   0  0  0  0  0  0
    2.1357   -1.0937    0.6094 C   0  0  0  0  0  0
    3.6540   -1.2833    0.5023 C   0  0  0  0  0  0
    4.1667   -2.5760    1.1585 C   0  0  0  0  0  0
    3.6474   -3.8734    0.5222 C   0  0  0  0  0  0
    4.2080   -5.1434    1.1734 C   0  0  0  0  0  0
    3.6712   -6.4477    0.5842 C   0  0  0  0  0  0
    4.0361   -7.7295    1.4340 C   0  0  0  0  0  0
    4.0691   -8.8015    0.7834 O   0  0  0  0  0  0
    4.2145   -7.5269    2.6640 O   0  5  0  0  0  0
   -7.9807    5.3480   -0.5931 H   0  0  0  0  0  0
   -6.6426    5.4376   -1.7483 H   0  0  0  0  0  0
   -6.4965    6.2132   -0.1667 H   0  0  0  0  0  0
   -6.5825    3.9439    0.9461 H   0  0  0  0  0  0
   -6.7271    3.1747   -0.6242 H   0  0  0  0  0  0
   -4.4742    4.0812   -1.2764 H   0  0  0  0  0  0
   -4.3288    4.8499    0.2954 H   0  0  0  0  0  0
   -4.4604    2.5960    1.4087 H   0  0  0  0  0  0
   -4.6072    1.8287   -0.1629 H   0  0  0  0  0  0
   -2.3366    2.7146   -0.8063 H   0  0  0  0  0  0
   -2.1935    3.4793    0.7680 H   0  0  0  0  0  0
   -2.3898    1.2204    1.8656 H   0  0  0  0  0  0
   -2.4922    0.4600    0.2828 H   0  0  0  0  0  0
   -0.0223    2.0093    1.3276 H   0  0  0  0  0  0
   -0.4029   -0.4098   -0.5051 H   0  0  0  0  0  0
    1.9848    0.3071   -1.0269 H   0  0  0  0  0  0
    2.0975    1.0801    0.5524 H   0  0  0  0  0  0
    1.8309   -1.1497    1.6632 H   0  0  0  0  0  0
    1.6244   -1.9208    0.1026 H   0  0  0  0  0  0
    3.9411   -1.2755   -0.5600 H   0  0  0  0  0  0
    4.1525   -0.4153    0.9593 H   0  0  0  0  0  0
    5.2650   -2.5797    1.1230 H   0  0  0  0  0  0
    3.9015   -2.5690    2.2258 H   0  0  0  0  0  0
    2.5504   -3.9045    0.5851 H   0  0  0  0  0  0
    3.8850   -3.8640   -0.5536 H   0  0  0  0  0  0
    5.3063   -5.1331    1.1036 H   0  0  0  0  0  0
    3.9825   -5.1620    2.2464 H   0  0  0  0  0  0
    2.5707   -6.3943    0.5358 H   0  0  0  0  0  0
    4.0146   -6.5961   -0.4480 H   0  0  0  0  0  0
  1  2  1  0  0  0
  1 19  1  0  0  0
  1 20  1  0  0  0
  1 21  1  0  0  0
  2  3  1  0  0  0
  2 22  1  0  0  0
  2 23  1  0  0  0
  3  4  1  0  0  0
  3 24  1  0  0  0
  3 25  1  0  0  0
  4  5  1  0  0  0
  4 26  1  0  0  0
  4 27  1  0  0  0
  5  6  1  0  0  0
  5 28  1  0  0  0
  5 29  1  0  0  0
  6  7  1  0  0  0
  6 30  1  0  0  0
  6 31  1  0  0  0
  7  8  2  0  0  0
  7 32  1  0  0  0
  8  9  1  0  0  0
  8 33  1  0  0  0
  9 10  1  0  0  0
  9 34  1  0  0  0
  9 35  1  0  0  0
 10 11  1  0  0  0
 10 36  1  0  0  0
 10 37  1  0  0  0
 11 12  1  0  0  0
 11 38  1  0  0  0
 11 39  1  0  0  0
 12 13  1  0  0  0
 12 40  1  0  0  0
 12 41  1  0  0  0
 13 14  1  0  0  0
 13 42  1  0  0  0
 13 43  1  0  0  0
 14 15  1  0  0  0
 14 44  1  0  0  0
 14 45  1  0  0  0
 15 16  1  0  0  0
 15 46  1  0  0  0
 15 47  1  0  0  0
 16 17  2  0  0  0
 16 18  1  0  0  0
M  END
>  <i_m_Spin_multiplicity> (1)
1

>  <s_j_Task> (1)
Single Point

>  <s_j_QM_Method> (1)
DFT(b3lyp-d3)

>  <s_j_QM_Basis> (1)
6-31g**

>  <i_j_Number_of_canonical_orbitals> (1)
415

>  <r_j_Gas_Phase_Energy> (1)
-777.743528039292

>  <r_j_Final_Energy> (1)
-777.743528039292

>  <r_j_HOMO> (1)
-0.00522095869013561

>  <r_j_LUMO> (1)
0.0898296007131446

>  <r_j_Polarizability> (1)
186.663014394486

>  <r_j_QM_Dipole_(debye)> (1)
34.7932952188072

>  <r_j_QM_Dipole_X_(debye)> (1)
-16.9040560294589

>  <r_j_QM_Dipole_Y_(debye)> (1)
30.0292982052221

>  <r_j_QM_Dipole_Z_(debye)> (1)
-4.80286698106768

>  <r_j_Lowest_Frequency_(cm-1)> (1)
16.4281155095156

>  <r_j_Highest_Frequency_(cm-1)> (1)
3120.4722034438

>  <r_j_2nd_Lowest_Frequency_(cm-1)> (1)
20.5440622413027

>  <i_j_Num_Negative_Frequencies> (1)
0

>  <r_j_Zero_Point_Energy_(kcal/mol)> (1)
267.195084635842

>  <r_j_Entropy_(cal/mol/K)_298.15K_1.00E+00atm> (1)
152.533799946415

>  <r_j_Enthalpy_(kcal/mol)_298.15K_1.00E+00atm> (1)
13.9782947894589

>  <r_j_Free_Energy_(kcal/mol)_298.15K_1.00E+00atm> (1)
-31.4996576645648

>  <r_j_Internal_Energy_(kcal/mol)_298.15K_1.00E+00atm> (1)
13.3858092006316

>  <r_j_Heat_Capacity_(cal/mol/K)_298.15K_1.00E+00atm> (1)
78.5501283806998

>  <r_j_ln(Q)_298.15K_1.00E+00atm> (1)
53.1652723012437

>  <r_j_Total_Internal_Energy_(au)_298.15K_1.00E+00atm> (1)
-777.296393920604

>  <r_j_Total_Enthalpy_(au)_298.15K_1.00E+00atm> (1)
-777.295449734712

>  <r_j_Total_Free_Energy_(au)_298.15K_1.00E+00atm> (1)
-777.367923465593

>  <i_j_Geometry_convergence_category> (1)
3

>  <r_epik_Ionization_Penalty> (1)
  0.0049

>  <r_epik_Ionization_Penalty_Charging> (1)
  0.0049

>  <r_epik_Ionization_Penalty_Neutral> (1)
  0.0000

>  <r_epik_State_Penalty> (1)
  0.0035

>  <r_epik_Charging_Adjusted_Penalty> (1)
0.0083707107128699

>  <i_epik_Tot_Q> (1)
-1

>  <i_epik_Tot_abs_Q> (1)
1

>  <s_lp_Force_Field> (1)
S-OPLS

>  <r_lp_Energy> (1)
5.1645

>  <b_lp_Chiralities_Consistent> (1)
1

$$$$
