47326_Danitol
                    3D
 Schrodinger Suite 2021-3.
 49 51  0  0  1  0            999 V2000
   -2.3434   -2.2878    0.9032 C   0  0  0  0  0  0
   -1.1854   -1.9214   -0.0153 C   0  0  0  0  0  0
   -0.1227   -0.9731    0.5887 C   0  0  0  0  0  0
   -1.0491   -0.5185   -0.5540 C   0  0  0  0  0  0
   -0.4887   -0.2850   -1.9501 C   0  0  0  0  0  0
   -2.0732    0.5470   -0.1843 C   0  0  0  0  0  0
    1.3202   -1.2179    0.4143 C   0  0  0  0  0  0
    1.9173   -1.5682   -0.5837 O   0  0  0  0  0  0
    1.9709   -1.0077    1.6078 O   0  0  0  0  0  0
    3.3780   -1.2909    1.6021 C   0  0  0  0  0  0
    3.5885   -2.7550    1.5875 C   0  0  0  0  0  0
    3.7725   -3.9000    1.6113 N   0  0  0  0  0  0
    4.0067   -0.6834    2.8435 C   0  0  0  0  0  0
    5.3527   -0.3178    2.8033 C   0  0  0  0  0  0
    5.9673    0.1677    3.9554 C   0  0  0  0  0  0
    5.2461    0.3075    5.1444 C   0  0  0  0  0  0
    3.9029   -0.0601    5.1697 C   0  0  0  0  0  0
    3.2779   -0.5620    4.0285 C   0  0  0  0  0  0
    7.2859    0.5538    3.8447 O   0  0  0  0  0  0
    8.1614    0.2463    4.8737 C   0  0  0  0  0  0
    8.1432   -0.9949    5.5151 C   0  0  0  0  0  0
    9.0872   -1.2598    6.5059 C   0  0  0  0  0  0
   10.0457   -0.3037    6.8472 C   0  0  0  0  0  0
   10.0573    0.9272    6.1893 C   0  0  0  0  0  0
    9.1130    1.2099    5.2028 C   0  0  0  0  0  0
   -0.7424   -3.1111   -0.8544 C   0  0  0  0  0  0
   -2.0733   -3.1524    1.5187 H   0  0  0  0  0  0
   -3.2232   -2.5637    0.3106 H   0  0  0  0  0  0
   -2.6339   -1.4806    1.5780 H   0  0  0  0  0  0
   -0.3613   -0.5823    1.5728 H   0  0  0  0  0  0
   -0.1073    0.7387   -2.0327 H   0  0  0  0  0  0
   -1.2901   -0.4010   -2.6888 H   0  0  0  0  0  0
    0.3259   -0.9578   -2.2067 H   0  0  0  0  0  0
   -1.6329    1.5433   -0.2987 H   0  0  0  0  0  0
   -2.4345    0.4633    0.8422 H   0  0  0  0  0  0
   -2.9401    0.4878   -0.8520 H   0  0  0  0  0  0
    3.8307   -0.8842    0.6914 H   0  0  0  0  0  0
    5.9430   -0.4156    1.8976 H   0  0  0  0  0  0
    5.7399    0.6925    6.0297 H   0  0  0  0  0  0
    3.3380    0.0465    6.0907 H   0  0  0  0  0  0
    2.2344   -0.8529    4.0501 H   0  0  0  0  0  0
    7.3992   -1.7345    5.2397 H   0  0  0  0  0  0
    9.0755   -2.2230    7.0075 H   0  0  0  0  0  0
   10.7785   -0.5178    7.6190 H   0  0  0  0  0  0
   10.7997    1.6763    6.4485 H   0  0  0  0  0  0
    9.0979    2.1611    4.6817 H   0  0  0  0  0  0
    0.1682   -2.9260   -1.4202 H   0  0  0  0  0  0
   -1.5404   -3.3834   -1.5541 H   0  0  0  0  0  0
   -0.5572   -3.9757   -0.2079 H   0  0  0  0  0  0
  1  2  1  0  0  0
  1 27  1  0  0  0
  1 28  1  0  0  0
  1 29  1  0  0  0
  2  4  1  0  0  0
  2  3  1  0  0  0
  2 26  1  0  0  0
  3  4  1  0  0  0
  3  7  1  0  0  0
  3 30  1  0  0  0
  4  5  1  0  0  0
  4  6  1  0  0  0
  5 31  1  0  0  0
  5 32  1  0  0  0
  5 33  1  0  0  0
  6 34  1  0  0  0
  6 35  1  0  0  0
  6 36  1  0  0  0
  7  8  2  0  0  0
  7  9  1  0  0  0
  9 10  1  0  0  0
 10 11  1  0  0  0
 10 13  1  0  0  0
 10 37  1  0  0  0
 11 12  3  0  0  0
 13 18  1  0  0  0
 13 14  2  0  0  0
 14 15  1  0  0  0
 14 38  1  0  0  0
 15 16  2  0  0  0
 15 19  1  0  0  0
 16 17  1  0  0  0
 16 39  1  0  0  0
 17 18  2  0  0  0
 17 40  1  0  0  0
 18 41  1  0  0  0
 19 20  1  0  0  0
 20 25  1  0  0  0
 20 21  2  0  0  0
 21 22  1  0  0  0
 21 42  1  0  0  0
 22 23  2  0  0  0
 22 43  1  0  0  0
 23 24  1  0  0  0
 23 44  1  0  0  0
 24 25  2  0  0  0
 24 45  1  0  0  0
 25 46  1  0  0  0
 26 47  1  0  0  0
 26 48  1  0  0  0
 26 49  1  0  0  0
M  END
>  <i_m_Spin_multiplicity> (1)
1

>  <s_j_Task> (1)
Single Point

>  <s_j_QM_Method> (1)
DFT(b3lyp-d3)

>  <s_j_QM_Basis> (1)
cc-pvtz(-f)

>  <i_j_Number_of_canonical_orbitals> (1)
792

>  <i_j_Geometry_convergence_category> (1)
4

>  <r_j_Gas_Phase_Energy> (1)
-1132.98800687565

>  <r_j_Final_Energy> (1)
-1132.98800687565

>  <r_j_HOMO> (1)
-0.262565958374045

>  <r_j_LUMO> (1)
-0.0666011368785487

>  <r_j_Polarizability> (1)
269.756717761153

>  <r_j_QM_Dipole_(debye)> (1)
4.45784953844211

>  <r_j_QM_Dipole_X_(debye)> (1)
-2.05663415455124

>  <r_j_QM_Dipole_Y_(debye)> (1)
3.31210681148997

>  <r_j_QM_Dipole_Z_(debye)> (1)
2.16162599239638

>  <r_j_Lowest_Frequency_(cm-1)> (1)
29.132691860975

>  <r_j_Highest_Frequency_(cm-1)> (1)
3170.52009902993

>  <r_j_2nd_Lowest_Frequency_(cm-1)> (1)
37.8845419763191

>  <i_j_Num_Negative_Frequencies> (1)
0

>  <r_j_Zero_Point_Energy_(kcal/mol)> (1)
251.062092388642

>  <r_j_Entropy_(cal/mol/K)_298.15K_1.00E+00atm> (1)
155.94818584554

>  <r_j_Enthalpy_(kcal/mol)_298.15K_1.00E+00atm> (1)
15.2212828008023

>  <r_j_Free_Energy_(kcal/mol)_298.15K_1.00E+00atm> (1)
-31.2746688090456

>  <r_j_Internal_Energy_(kcal/mol)_298.15K_1.00E+00atm> (1)
14.628797211975

>  <r_j_Heat_Capacity_(cal/mol/K)_298.15K_1.00E+00atm> (1)
93.9788871030262

>  <r_j_ln(Q)_298.15K_1.00E+00atm> (1)
52.7855350388329

>  <r_j_Total_Internal_Energy_(au)_298.15K_1.00E+00atm> (1)
-1132.56460148928

>  <r_j_Total_Enthalpy_(au)_298.15K_1.00E+00atm> (1)
-1132.56365730338

>  <r_j_Total_Free_Energy_(au)_298.15K_1.00E+00atm> (1)
-1132.63775331919

>  <r_lp_tautomer_probability> (1)
1

>  <r_epik_Ionization_Penalty> (1)
  0.0000

>  <r_epik_Ionization_Penalty_Charging> (1)
  0.0000

>  <r_epik_Ionization_Penalty_Neutral> (1)
  0.0000

>  <r_epik_State_Penalty> (1)
  0.0000

>  <r_epik_Charging_Adjusted_Penalty> (1)
0

>  <i_epik_Tot_Q> (1)
0

>  <i_epik_Tot_abs_Q> (1)
0

>  <s_lp_Force_Field> (1)
S-OPLS

>  <r_lp_Energy> (1)
52.613448

>  <b_lp_Chiralities_Consistent> (1)
1

>  <s_epik_Chemistry_Notes> (1)
This compound has an ester and may undergo hydrolysis at high or low pH.

$$$$
