47689_17a(H),18a(H),21ß(H)-28,30-Bisnorhopane
                    3D
 Schrodinger Suite 2021-3.
 76 80  0  0  1  0            999 V2000
   -0.6938    1.3683    0.0018 C   0  0  0  0  0  0
   -0.0594   -0.0142    0.1806 C   0  0  0  0  0  0
    1.4704   -0.0148    0.0529 C   0  0  0  0  0  0
    2.2054    0.7032    1.2250 C   0  0  0  0  0  0
    3.1387   -0.3588    1.8487 C   0  0  0  0  0  0
    3.4412   -1.3505    0.7043 C   0  0  0  0  0  0
    2.0561   -1.4568    0.0176 C   0  0  0  0  0  0
    2.0840   -2.0921   -1.3801 C   0  0  0  0  0  0
    3.1974   -1.5081   -2.2617 C   0  0  0  0  0  0
    4.6036   -1.6182   -1.6167 C   0  0  0  0  0  0
    4.5573   -0.8513   -0.2495 C   0  0  0  0  0  0
    5.9328   -0.8501    0.4332 C   0  0  0  0  0  0
    7.0180   -0.2565   -0.4706 C   0  0  0  0  0  0
    7.0957   -0.9799   -1.8258 C   0  0  0  0  0  0
    5.7160   -0.9660   -2.5746 C   0  0  0  0  0  0
    5.8369   -1.8009   -3.9046 C   0  0  0  0  0  0
    7.2817   -2.0745   -4.3680 C   0  0  0  0  0  0
    8.1135   -0.8008   -4.1746 C   0  0  0  0  0  0
    8.4030   -0.6033   -2.6526 C   0  0  0  0  0  0
    8.8905    0.8564   -2.4698 C   0  0  0  0  0  0
   10.0946    1.1810   -3.3757 C   0  0  0  0  0  0
    9.8220    0.8891   -4.8586 C   0  0  0  0  0  0
    9.2959   -0.5411   -5.1585 C   0  0  0  0  0  0
   10.4295   -1.5848   -5.1124 C   0  0  0  0  0  0
    8.7509   -0.5330   -6.6050 C   0  0  0  0  0  0
    9.4917   -1.5541   -2.0899 C   0  0  0  0  0  0
    5.3103    0.4852   -2.9446 C   0  0  0  0  0  0
    4.8962   -3.1248   -1.3716 C   0  0  0  0  0  0
   -1.7830    1.3268    0.1083 H   0  0  0  0  0  0
   -0.4701    1.7756   -0.9912 H   0  0  0  0  0  0
   -0.3147    2.0812    0.7422 H   0  0  0  0  0  0
   -0.3312   -0.4236    1.1641 H   0  0  0  0  0  0
   -0.4822   -0.7032   -0.5632 H   0  0  0  0  0  0
    1.7233    0.4923   -0.8875 H   0  0  0  0  0  0
    2.7841    1.5562    0.8551 H   0  0  0  0  0  0
    1.5044    1.1050    1.9648 H   0  0  0  0  0  0
    4.0313    0.0784    2.3053 H   0  0  0  0  0  0
    2.6095   -0.8954    2.6450 H   0  0  0  0  0  0
    3.7426   -2.3209    1.1175 H   0  0  0  0  0  0
    1.4202   -2.0775    0.6660 H   0  0  0  0  0  0
    2.2088   -3.1770   -1.2890 H   0  0  0  0  0  0
    1.1137   -1.9435   -1.8716 H   0  0  0  0  0  0
    3.1923   -2.0065   -3.2383 H   0  0  0  0  0  0
    2.9656   -0.4563   -2.4538 H   0  0  0  0  0  0
    4.3155    0.1932   -0.4849 H   0  0  0  0  0  0
    5.8908   -0.2842    1.3702 H   0  0  0  0  0  0
    6.2048   -1.8775    0.7113 H   0  0  0  0  0  0
    6.8243    0.8127   -0.6182 H   0  0  0  0  0  0
    7.9857   -0.3179    0.0410 H   0  0  0  0  0  0
    7.2555   -2.0342   -1.5803 H   0  0  0  0  0  0
    5.3112   -2.7538   -3.8192 H   0  0  0  0  0  0
    5.3250   -1.2548   -4.7058 H   0  0  0  0  0  0
    7.7155   -2.9097   -3.8057 H   0  0  0  0  0  0
    7.2606   -2.3967   -5.4131 H   0  0  0  0  0  0
    7.4329    0.0189   -4.4349 H   0  0  0  0  0  0
    8.0736    1.5496   -2.7045 H   0  0  0  0  0  0
    9.1660    1.0453   -1.4265 H   0  0  0  0  0  0
   10.3601    2.2389   -3.2595 H   0  0  0  0  0  0
   10.9749    0.6194   -3.0426 H   0  0  0  0  0  0
    9.0681    1.6052   -5.2165 H   0  0  0  0  0  0
   10.7270    1.0768   -5.4512 H   0  0  0  0  0  0
   11.0807   -1.4663   -5.9858 H   0  0  0  0  0  0
   10.0256   -2.6028   -5.1381 H   0  0  0  0  0  0
   11.0593   -1.4992   -4.2274 H   0  0  0  0  0  0
    9.5076   -0.1348   -7.2905 H   0  0  0  0  0  0
    7.8561    0.0934   -6.6946 H   0  0  0  0  0  0
    8.4946   -1.5381   -6.9539 H   0  0  0  0  0  0
   10.5053   -1.2546   -2.3507 H   0  0  0  0  0  0
    9.3527   -2.5821   -2.4372 H   0  0  0  0  0  0
    9.4420   -1.5681   -0.9961 H   0  0  0  0  0  0
    6.1023    0.9840   -3.5037 H   0  0  0  0  0  0
    5.0989    1.1068   -2.0724 H   0  0  0  0  0  0
    4.4222    0.4995   -3.5811 H   0  0  0  0  0  0
    5.9480   -3.3311   -1.1688 H   0  0  0  0  0  0
    4.6061   -3.7342   -2.2318 H   0  0  0  0  0  0
    4.3327   -3.5059   -0.5186 H   0  0  0  0  0  0
  1  2  1  0  0  0
  1 29  1  0  0  0
  1 30  1  0  0  0
  1 31  1  0  0  0
  2  3  1  0  0  0
  2 32  1  0  0  0
  2 33  1  0  0  0
  3  7  1  0  0  0
  3  4  1  0  0  0
  3 34  1  0  0  0
  4  5  1  0  0  0
  4 35  1  0  0  0
  4 36  1  0  0  0
  5  6  1  0  0  0
  5 37  1  0  0  0
  5 38  1  0  0  0
  6 11  1  0  0  0
  6  7  1  0  0  0
  6 39  1  0  0  0
  7  8  1  0  0  0
  7 40  1  0  0  0
  8  9  1  0  0  0
  8 41  1  0  0  0
  8 42  1  0  0  0
  9 10  1  0  0  0
  9 43  1  0  0  0
  9 44  1  0  0  0
 10 15  1  0  0  0
 10 11  1  0  0  0
 10 28  1  0  0  0
 11 12  1  0  0  0
 11 45  1  0  0  0
 12 13  1  0  0  0
 12 46  1  0  0  0
 12 47  1  0  0  0
 13 14  1  0  0  0
 13 48  1  0  0  0
 13 49  1  0  0  0
 14 19  1  0  0  0
 14 15  1  0  0  0
 14 50  1  0  0  0
 15 16  1  0  0  0
 15 27  1  0  0  0
 16 17  1  0  0  0
 16 51  1  0  0  0
 16 52  1  0  0  0
 17 18  1  0  0  0
 17 53  1  0  0  0
 17 54  1  0  0  0
 18 23  1  0  0  0
 18 19  1  0  0  0
 18 55  1  0  0  0
 19 20  1  0  0  0
 19 26  1  0  0  0
 20 21  1  0  0  0
 20 56  1  0  0  0
 20 57  1  0  0  0
 21 22  1  0  0  0
 21 58  1  0  0  0
 21 59  1  0  0  0
 22 23  1  0  0  0
 22 60  1  0  0  0
 22 61  1  0  0  0
 23 24  1  0  0  0
 23 25  1  0  0  0
 24 62  1  0  0  0
 24 63  1  0  0  0
 24 64  1  0  0  0
 25 65  1  0  0  0
 25 66  1  0  0  0
 25 67  1  0  0  0
 26 68  1  0  0  0
 26 69  1  0  0  0
 26 70  1  0  0  0
 27 71  1  0  0  0
 27 72  1  0  0  0
 27 73  1  0  0  0
 28 74  1  0  0  0
 28 75  1  0  0  0
 28 76  1  0  0  0
M  END
>  <i_m_Spin_multiplicity> (1)
1

>  <s_j_Task> (1)
Single Point

>  <s_j_QM_Method> (1)
DFT(b3lyp-d3)

>  <s_j_QM_Basis> (1)
cc-pvtz(-f)

>  <i_j_Number_of_canonical_orbitals> (1)
1055

>  <i_j_Geometry_convergence_category> (1)
3

>  <r_j_Gas_Phase_Energy> (1)
-1096.345069454

>  <r_j_Final_Energy> (1)
-1096.345069454

>  <r_j_HOMO> (1)
-0.250985300354569

>  <r_j_LUMO> (1)
0.0217604327190978

>  <r_j_Polarizability> (1)
308.620270968683

>  <r_j_QM_Dipole_(debye)> (1)
0.133162559942097

>  <r_j_QM_Dipole_X_(debye)> (1)
-0.069375503166962

>  <r_j_QM_Dipole_Y_(debye)> (1)
-0.0476764910479534

>  <r_j_QM_Dipole_Z_(debye)> (1)
0.10318071104629

>  <r_j_Lowest_Frequency_(cm-1)> (1)
45.3468580892466

>  <r_j_Highest_Frequency_(cm-1)> (1)
3108.27942844496

>  <r_j_2nd_Lowest_Frequency_(cm-1)> (1)
67.890581528704

>  <i_j_Num_Negative_Frequencies> (1)
0

>  <r_j_Zero_Point_Energy_(kcal/mol)> (1)
446.59362029724

>  <r_j_Entropy_(cal/mol/K)_298.15K_1.00E+00atm> (1)
160.234392877873

>  <r_j_Enthalpy_(kcal/mol)_298.15K_1.00E+00atm> (1)
16.8290461005069

>  <r_j_Free_Energy_(kcal/mol)_298.15K_1.00E+00atm> (1)
-30.944838136031

>  <r_j_Internal_Energy_(kcal/mol)_298.15K_1.00E+00atm> (1)
16.2365605116796

>  <r_j_Heat_Capacity_(cal/mol/K)_298.15K_1.00E+00atm> (1)
115.154835844426

>  <r_j_ln(Q)_298.15K_1.00E+00atm> (1)
52.2288452572847

>  <r_j_Total_Internal_Energy_(au)_298.15K_1.00E+00atm> (1)
-1095.60750260771

>  <r_j_Total_Enthalpy_(au)_298.15K_1.00E+00atm> (1)
-1095.60655842181

>  <r_j_Total_Free_Energy_(au)_298.15K_1.00E+00atm> (1)
-1095.68269095291

>  <r_lp_tautomer_probability> (1)
1

>  <r_epik_Ionization_Penalty> (1)
  0.0000

>  <r_epik_Ionization_Penalty_Charging> (1)
  0.0000

>  <r_epik_Ionization_Penalty_Neutral> (1)
  0.0000

>  <r_epik_State_Penalty> (1)
  0.0000

>  <r_epik_Charging_Adjusted_Penalty> (1)
0

>  <i_epik_Tot_Q> (1)
0

>  <i_epik_Tot_abs_Q> (1)
0

>  <s_lp_Force_Field> (1)
S-OPLS

>  <r_lp_Energy> (1)
92.8702

>  <b_lp_Chiralities_Consistent> (1)
1

$$$$
