5054_Resorcinol
                    3D
 Schrodinger Suite 2021-3.
 14 14  0  0  1  0            999 V2000
   -2.0690    1.1763    0.0000 C   0  0  0  0  0  0
   -0.6756    1.1959    0.0000 C   0  0  0  0  0  0
    0.0164   -0.0176    0.0000 C   0  0  0  0  0  0
   -0.6788   -1.2315    0.0000 C   0  0  0  0  0  0
   -2.0777   -1.2267    0.0000 C   0  0  0  0  0  0
   -2.7826   -0.0206    0.0001 C   0  0  0  0  0  0
   -2.8098   -2.3814    0.0000 O   0  0  0  0  0  0
    1.3825    0.0391    0.0000 O   0  0  0  0  0  0
   -2.6120    2.1170    0.0000 H   0  0  0  0  0  0
   -0.1152    2.1236   -0.0001 H   0  0  0  0  0  0
   -0.1341   -2.1749    0.0000 H   0  0  0  0  0  0
   -3.8663   -0.0421    0.0001 H   0  0  0  0  0  0
   -2.2128   -3.1407   -0.0001 H   0  0  0  0  0  0
    1.7416   -0.8576    0.0001 H   0  0  0  0  0  0
  1  6  1  0  0  0
  1  2  2  0  0  0
  1  9  1  0  0  0
  2  3  1  0  0  0
  2 10  1  0  0  0
  3  4  2  0  0  0
  3  8  1  0  0  0
  4  5  1  0  0  0
  4 11  1  0  0  0
  5  6  2  0  0  0
  5  7  1  0  0  0
  6 12  1  0  0  0
  7 13  1  0  0  0
  8 14  1  0  0  0
M  END
>  <i_m_Spin_multiplicity> (1)
1

>  <s_j_Task> (1)
Single Point

>  <s_j_QM_Method> (1)
DFT(b3lyp-d3)

>  <s_j_QM_Basis> (1)
cc-pvtz(-f)

>  <i_j_Number_of_canonical_orbitals> (1)
234

>  <i_j_Geometry_convergence_category> (1)
0

>  <r_j_Gas_Phase_Energy> (1)
-382.831848455884

>  <r_j_Final_Energy> (1)
-382.831848455884

>  <r_j_HOMO> (1)
-0.222084592320656

>  <r_j_LUMO> (1)
-0.00975941122839219

>  <r_j_Polarizability> (1)
73.147127302288

>  <r_j_QM_Dipole_(debye)> (1)
2.30357384583033

>  <r_j_QM_Dipole_X_(debye)> (1)
1.15132897318482

>  <r_j_QM_Dipole_Y_(debye)> (1)
-1.99521779511468

>  <r_j_QM_Dipole_Z_(debye)> (1)
-9.35758326358602e-05

>  <r_j_Lowest_Frequency_(cm-1)> (1)
229.017460548676

>  <r_j_Highest_Frequency_(cm-1)> (1)
3773.04847689358

>  <r_j_2nd_Lowest_Frequency_(cm-1)> (1)
243.872652112273

>  <i_j_Num_Negative_Frequencies> (1)
0

>  <r_j_Zero_Point_Energy_(kcal/mol)> (1)
68.0274622884953

>  <r_j_Entropy_(cal/mol/K)_298.15K_1.00E+00atm> (1)
79.5473677574972

>  <r_j_Enthalpy_(kcal/mol)_298.15K_1.00E+00atm> (1)
4.68430945656103

>  <r_j_Free_Energy_(kcal/mol)_298.15K_1.00E+00atm> (1)
-19.0327382403368

>  <r_j_Internal_Energy_(kcal/mol)_298.15K_1.00E+00atm> (1)
4.09182386773376

>  <r_j_Heat_Capacity_(cal/mol/K)_298.15K_1.00E+00atm> (1)
26.1669682017011

>  <r_j_ln(Q)_298.15K_1.00E+00atm> (1)
32.1235462925079

>  <r_j_Total_Internal_Energy_(au)_298.15K_1.00E+00atm> (1)
-382.716919057039

>  <r_j_Total_Enthalpy_(au)_298.15K_1.00E+00atm> (1)
-382.715974871147

>  <r_j_Total_Free_Energy_(au)_298.15K_1.00E+00atm> (1)
-382.753770392698

>  <r_lp_tautomer_probability> (1)
1

>  <r_epik_Ionization_Penalty> (1)
  0.0050

>  <r_epik_Ionization_Penalty_Charging> (1)
  0.0000

>  <r_epik_Ionization_Penalty_Neutral> (1)
  0.0050

>  <r_epik_State_Penalty> (1)
  0.0036

>  <r_epik_Charging_Adjusted_Penalty> (1)
0.00361095

>  <i_epik_Tot_Q> (1)
0

>  <i_epik_Tot_abs_Q> (1)
0

>  <s_lp_Force_Field> (1)
S-OPLS

>  <r_lp_Energy> (1)
4.2546

>  <b_lp_Chiralities_Consistent> (1)
1

$$$$
