50958_Nitrobap
                    3D
 Schrodinger Suite 2021-3.
 34 38  0  0  1  0            999 V2000
   -4.4764    7.3104    0.0001 C   0  0  0  0  0  0
   -3.0646    7.3823    0.0000 C   0  0  0  0  0  0
   -2.3018    6.2344   -0.0001 C   0  0  0  0  0  0
   -2.9018    4.9477   -0.0001 C   0  0  0  0  0  0
   -2.1432    3.7192   -0.0001 C   0  0  0  0  0  0
   -2.8124    2.4711   -0.0001 C   0  0  0  0  0  0
   -4.2534    2.4359   -0.0001 C   0  0  0  0  0  0
   -4.9699    3.6203    0.0000 C   0  0  0  0  0  0
   -4.3331    4.8811    0.0000 C   0  0  0  0  0  0
   -5.0939    6.0829    0.0001 C   0  0  0  0  0  0
   -4.9244    1.1650   -0.0001 C   0  0  0  0  0  0
   -4.2256    0.0034   -0.0001 C   0  0  0  0  0  0
   -2.7873    0.0021   -0.0001 C   0  0  0  0  0  0
   -2.0734    1.2426   -0.0001 C   0  0  0  0  0  0
   -0.6362    1.2561   -0.0001 C   0  0  0  0  0  0
    0.0250   -0.0098    0.0000 C   0  0  0  0  0  0
   -0.6894   -1.2060    0.0000 C   0  0  0  0  0  0
   -2.0744   -1.2022   -0.0001 C   0  0  0  0  0  0
    1.4897   -0.1628    0.0002 N   0  3  1  0  0  0
    1.9440   -1.3109    0.0004 O   0  0  0  0  0  0
    2.2098    0.8399    0.0001 O   0  5  0  0  0  0
    0.0035    2.5354   -0.0002 C   0  0  0  0  0  0
   -0.7194    3.6951   -0.0002 C   0  0  0  0  0  0
   -5.0657    8.2221    0.0002 H   0  0  0  0  0  0
   -2.5760    8.3521    0.0000 H   0  0  0  0  0  0
   -1.2223    6.3288   -0.0001 H   0  0  0  0  0  0
   -6.0566    3.5837    0.0001 H   0  0  0  0  0  0
   -6.1783    6.0105    0.0002 H   0  0  0  0  0  0
   -6.0109    1.1576   -0.0001 H   0  0  0  0  0  0
   -4.7396   -0.9532   -0.0001 H   0  0  0  0  0  0
   -0.1366   -2.1353    0.0001 H   0  0  0  0  0  0
   -2.6151   -2.1435   -0.0001 H   0  0  0  0  0  0
    1.0795    2.5790   -0.0002 H   0  0  0  0  0  0
   -0.1694    4.6284   -0.0003 H   0  0  0  0  0  0
  1 10  1  0  0  0
  1  2  2  0  0  0
  1 24  1  0  0  0
  2  3  1  0  0  0
  2 25  1  0  0  0
  3  4  2  0  0  0
  3 26  1  0  0  0
  4  9  1  0  0  0
  4  5  1  0  0  0
  5 23  1  0  0  0
  5  6  2  0  0  0
  6 14  1  0  0  0
  6  7  1  0  0  0
  7  8  2  0  0  0
  7 11  1  0  0  0
  8  9  1  0  0  0
  8 27  1  0  0  0
  9 10  2  0  0  0
 10 28  1  0  0  0
 11 12  2  0  0  0
 11 29  1  0  0  0
 12 13  1  0  0  0
 12 30  1  0  0  0
 13 18  1  0  0  0
 13 14  2  0  0  0
 14 15  1  0  0  0
 15 16  2  0  0  0
 15 22  1  0  0  0
 16 17  1  0  0  0
 16 19  1  0  0  0
 17 18  2  0  0  0
 17 31  1  0  0  0
 18 32  1  0  0  0
 19 20  2  0  0  0
 19 21  1  0  0  0
 22 23  2  0  0  0
 22 33  1  0  0  0
 23 34  1  0  0  0
M  END
>  <i_m_Spin_multiplicity> (1)
1

>  <s_j_Task> (1)
Single Point

>  <s_j_QM_Method> (1)
DFT(b3lyp-d3)

>  <s_j_QM_Basis> (1)
cc-pvtz(-f)

>  <i_j_Number_of_canonical_orbitals> (1)
606

>  <i_j_Geometry_convergence_category> (1)
3

>  <r_j_Gas_Phase_Energy> (1)
-974.2285516118

>  <r_j_Final_Energy> (1)
-974.2285516118

>  <r_j_HOMO> (1)
-0.200982701536791

>  <r_j_LUMO> (1)
-0.0990870979081573

>  <r_j_Polarizability> (1)
286.33055078808

>  <r_j_QM_Dipole_(debye)> (1)
6.28267072582342

>  <r_j_QM_Dipole_X_(debye)> (1)
-5.81716447872087

>  <r_j_QM_Dipole_Y_(debye)> (1)
2.37329914354377

>  <r_j_QM_Dipole_Z_(debye)> (1)
-0.000227774548995175

>  <r_j_Lowest_Frequency_(cm-1)> (1)
51.154508357643

>  <r_j_Highest_Frequency_(cm-1)> (1)
3239.96698581464

>  <r_j_2nd_Lowest_Frequency_(cm-1)> (1)
65.4843660293838

>  <i_j_Num_Negative_Frequencies> (1)
0

>  <r_j_Zero_Point_Energy_(kcal/mol)> (1)
160.378598767044

>  <r_j_Entropy_(cal/mol/K)_298.15K_1.00E+00atm> (1)
119.929725466871

>  <r_j_Enthalpy_(kcal/mol)_298.15K_1.00E+00atm> (1)
9.92805327147805

>  <r_j_Free_Energy_(kcal/mol)_298.15K_1.00E+00atm> (1)
-25.8289943764696

>  <r_j_Internal_Energy_(kcal/mol)_298.15K_1.00E+00atm> (1)
9.33556768265078

>  <r_j_Heat_Capacity_(cal/mol/K)_298.15K_1.00E+00atm> (1)
64.0987499233161

>  <r_j_ln(Q)_298.15K_1.00E+00atm> (1)
43.5942997830441

>  <r_j_Total_Internal_Energy_(au)_298.15K_1.00E+00atm> (1)
-973.958094870407

>  <r_j_Total_Enthalpy_(au)_298.15K_1.00E+00atm> (1)
-973.957150684515

>  <r_j_Total_Free_Energy_(au)_298.15K_1.00E+00atm> (1)
-974.014133167421

>  <r_lp_tautomer_probability> (1)
1

>  <r_epik_Ionization_Penalty> (1)
  0.0000

>  <r_epik_Ionization_Penalty_Charging> (1)
  0.0000

>  <r_epik_Ionization_Penalty_Neutral> (1)
  0.0000

>  <r_epik_State_Penalty> (1)
  0.0000

>  <r_epik_Charging_Adjusted_Penalty> (1)
0

>  <i_epik_Tot_Q> (1)
0

>  <i_epik_Tot_abs_Q> (1)
2

>  <s_lp_Force_Field> (1)
S-OPLS

>  <r_lp_Energy> (1)
58.407462

>  <b_lp_Chiralities_Consistent> (1)
1

$$$$
