516981_Methyl abietate
                    3D
 Schrodinger Suite 2021-3.
 55 57  0  0  1  0            999 V2000
   -0.6039    0.0283    1.2818 C   0  0  0  0  0  0
   -0.0129   -0.0916   -0.1401 C   0  0  0  0  0  0
   -0.6637   -1.2645   -0.8857 C   0  0  0  0  0  0
    1.5038   -0.1489   -0.0831 C   0  0  0  0  0  0
    2.2129   -1.2897   -0.1692 C   0  0  0  0  0  0
    3.6740   -1.3615   -0.1374 C   0  0  0  0  0  0
    4.3055   -2.5444   -0.1351 C   0  0  0  0  0  0
    5.7888   -2.7016   -0.1240 C   0  0  0  0  0  0
    6.5864   -1.4142   -0.4537 C   0  0  0  0  0  0
    5.9569   -0.1362    0.2042 C   0  0  0  0  0  0
    4.4315   -0.0483   -0.1604 C   0  0  0  0  0  0
    3.6338    0.9731    0.6828 C   0  0  0  0  0  0
    2.2226    1.1667    0.1168 C   0  0  0  0  0  0
    6.1767   -0.2078    1.7354 C   0  0  0  0  0  0
    7.6520   -0.4073    2.1213 C   0  0  0  0  0  0
    8.2795   -1.6405    1.4590 C   0  0  0  0  0  0
    8.0971   -1.6620   -0.0774 C   0  0  0  0  0  0
    9.0981   -0.6942   -0.7601 C   0  0  0  0  0  0
    8.4927   -3.0543   -0.5890 C   0  0  0  0  0  0
    8.8880   -3.9802    0.0863 O   0  0  0  0  0  0
    8.3694   -3.1342   -1.9382 O   0  0  0  0  0  0
    8.7239   -4.4048   -2.5083 C   0  0  0  0  0  0
    6.5887    1.1554   -0.3706 C   0  0  0  0  0  0
   -0.1818    0.8755    1.8313 H   0  0  0  0  0  0
   -0.3913   -0.8810    1.8544 H   0  0  0  0  0  0
   -1.6907    0.1616    1.2426 H   0  0  0  0  0  0
   -0.2733    0.8316   -0.6810 H   0  0  0  0  0  0
   -0.2323   -1.3932   -1.8829 H   0  0  0  0  0  0
   -1.7406   -1.0983   -0.9935 H   0  0  0  0  0  0
   -0.5347   -2.2047   -0.3388 H   0  0  0  0  0  0
    1.6978   -2.2396   -0.2899 H   0  0  0  0  0  0
    3.7170   -3.4615   -0.1287 H   0  0  0  0  0  0
    6.0935   -3.1075    0.8506 H   0  0  0  0  0  0
    6.0670   -3.4765   -0.8494 H   0  0  0  0  0  0
    6.5355   -1.2794   -1.5411 H   0  0  0  0  0  0
    4.3886    0.3093   -1.2025 H   0  0  0  0  0  0
    3.5475    0.6015    1.7099 H   0  0  0  0  0  0
    4.1470    1.9379    0.7330 H   0  0  0  0  0  0
    2.2711    1.7017   -0.8445 H   0  0  0  0  0  0
    1.6393    1.8151    0.7833 H   0  0  0  0  0  0
    5.8054    0.7073    2.2089 H   0  0  0  0  0  0
    5.5773   -1.0325    2.1415 H   0  0  0  0  0  0
    8.2261    0.4911    1.8651 H   0  0  0  0  0  0
    7.7322   -0.5071    3.2101 H   0  0  0  0  0  0
    9.3482   -1.7005    1.6925 H   0  0  0  0  0  0
    7.8383   -2.5461    1.8851 H   0  0  0  0  0  0
    9.1320    0.2746   -0.2645 H   0  0  0  0  0  0
    8.8473   -0.5412   -1.8118 H   0  0  0  0  0  0
   10.1095   -1.1123   -0.7113 H   0  0  0  0  0  0
    8.5654   -4.3023   -3.5820 H   0  0  0  0  0  0
    8.0925   -5.1992   -2.1005 H   0  0  0  0  0  0
    9.7683   -4.6462   -2.2939 H   0  0  0  0  0  0
    5.9603    2.0227   -0.1521 H   0  0  0  0  0  0
    6.6909    1.0883   -1.4588 H   0  0  0  0  0  0
    7.5716    1.3768    0.0407 H   0  0  0  0  0  0
  1  2  1  0  0  0
  1 24  1  0  0  0
  1 25  1  0  0  0
  1 26  1  0  0  0
  2  3  1  0  0  0
  2  4  1  0  0  0
  2 27  1  0  0  0
  3 28  1  0  0  0
  3 29  1  0  0  0
  3 30  1  0  0  0
  4 13  1  0  0  0
  4  5  2  0  0  0
  5  6  1  0  0  0
  5 31  1  0  0  0
  6 11  1  0  0  0
  6  7  2  0  0  0
  7  8  1  0  0  0
  7 32  1  0  0  0
  8  9  1  0  0  0
  8 33  1  0  0  0
  8 34  1  0  0  0
  9 17  1  0  0  0
  9 10  1  0  0  0
  9 35  1  0  0  0
 10 11  1  0  0  0
 10 14  1  0  0  0
 10 23  1  0  0  0
 11 12  1  0  0  0
 11 36  1  0  0  0
 12 13  1  0  0  0
 12 37  1  0  0  0
 12 38  1  0  0  0
 13 39  1  0  0  0
 13 40  1  0  0  0
 14 15  1  0  0  0
 14 41  1  0  0  0
 14 42  1  0  0  0
 15 16  1  0  0  0
 15 43  1  0  0  0
 15 44  1  0  0  0
 16 17  1  0  0  0
 16 45  1  0  0  0
 16 46  1  0  0  0
 17 18  1  0  0  0
 17 19  1  0  0  0
 18 47  1  0  0  0
 18 48  1  0  0  0
 18 49  1  0  0  0
 19 20  2  0  0  0
 19 21  1  0  0  0
 21 22  1  0  0  0
 22 50  1  0  0  0
 22 51  1  0  0  0
 22 52  1  0  0  0
 23 53  1  0  0  0
 23 54  1  0  0  0
 23 55  1  0  0  0
M  END
>  <i_m_Spin_multiplicity> (1)
1

>  <s_j_Task> (1)
Single Point

>  <s_j_QM_Method> (1)
DFT(b3lyp-d3)

>  <s_j_QM_Basis> (1)
cc-pvtz(-f)

>  <i_j_Number_of_canonical_orbitals> (1)
802

>  <i_j_Geometry_convergence_category> (1)
3

>  <r_j_Gas_Phase_Energy> (1)
-970.336119275331

>  <r_j_Final_Energy> (1)
-970.336119275331

>  <r_j_HOMO> (1)
-0.212653463846836

>  <r_j_LUMO> (1)
-0.019979651753686

>  <r_j_Polarizability> (1)
249.175966670191

>  <r_j_QM_Dipole_(debye)> (1)
1.96978360227755

>  <r_j_QM_Dipole_X_(debye)> (1)
-0.661205636963975

>  <r_j_QM_Dipole_Y_(debye)> (1)
1.37971384440014

>  <r_j_QM_Dipole_Z_(debye)> (1)
-1.24066282809601

>  <r_j_Lowest_Frequency_(cm-1)> (1)
52.8362405473197

>  <r_j_Highest_Frequency_(cm-1)> (1)
3119.13459562389

>  <r_j_2nd_Lowest_Frequency_(cm-1)> (1)
75.9195676538945

>  <i_j_Num_Negative_Frequencies> (1)
0

>  <r_j_Zero_Point_Energy_(kcal/mol)> (1)
308.976150388832

>  <r_j_Entropy_(cal/mol/K)_298.15K_1.00E+00atm> (1)
146.756958877756

>  <r_j_Enthalpy_(kcal/mol)_298.15K_1.00E+00atm> (1)
14.3084788322793

>  <r_j_Free_Energy_(kcal/mol)_298.15K_1.00E+00atm> (1)
-29.4471084571235

>  <r_j_Internal_Energy_(kcal/mol)_298.15K_1.00E+00atm> (1)
13.7159932434521

>  <r_j_Heat_Capacity_(cal/mol/K)_298.15K_1.00E+00atm> (1)
91.2784430425514

>  <r_j_ln(Q)_298.15K_1.00E+00atm> (1)
49.7009699685845

>  <r_j_Total_Internal_Energy_(au)_298.15K_1.00E+00atm> (1)
-969.821876607994

>  <r_j_Total_Enthalpy_(au)_298.15K_1.00E+00atm> (1)
-969.820932422102

>  <r_j_Total_Free_Energy_(au)_298.15K_1.00E+00atm> (1)
-969.890661389362

>  <r_lp_tautomer_probability> (1)
1

>  <r_epik_Ionization_Penalty> (1)
  0.0000

>  <r_epik_Ionization_Penalty_Charging> (1)
  0.0000

>  <r_epik_Ionization_Penalty_Neutral> (1)
  0.0000

>  <r_epik_State_Penalty> (1)
  0.0000

>  <r_epik_Charging_Adjusted_Penalty> (1)
0

>  <i_epik_Tot_Q> (1)
0

>  <i_epik_Tot_abs_Q> (1)
0

>  <s_lp_Force_Field> (1)
S-OPLS

>  <r_lp_Energy> (1)
38.703747

>  <b_lp_Chiralities_Consistent> (1)
1

>  <s_epik_Chemistry_Notes> (1)
This compound has an ester and may undergo hydrolysis at high or low pH.

$$$$
