517733_2,9-dimethyl decane
                    3D
 Schrodinger Suite 2021-3.
 38 37  0  0  1  0            999 V2000
   -4.1868    2.9319    0.0445 C   0  0  0  0  0  0
   -2.6568    2.9850   -0.0735 C   0  0  0  0  0  0
   -2.2427    3.8252   -1.2906 C   0  0  0  0  0  0
   -2.0716    1.5609   -0.1180 C   0  0  0  0  0  0
   -0.5403    1.4829   -0.0867 C   0  0  0  0  0  0
   -0.0147    0.0445   -0.0106 C   0  0  0  0  0  0
    1.5153   -0.0441    0.0107 C   0  0  0  0  0  0
    2.0409   -1.4826    0.0863 C   0  0  0  0  0  0
    3.5722   -1.5608    0.1173 C   0  0  0  0  0  0
    4.1568   -2.9850    0.0733 C   0  0  0  0  0  0
    3.7408   -3.8251    1.2898 C   0  0  0  0  0  0
    5.6870   -2.9327   -0.0428 C   0  0  0  0  0  0
   -4.6269    2.4467   -0.8357 H   0  0  0  0  0  0
   -4.6163    3.9369    0.1182 H   0  0  0  0  0  0
   -4.5011    2.3656    0.9280 H   0  0  0  0  0  0
   -2.2641    3.4780    0.8289 H   0  0  0  0  0  0
   -2.5775    3.3479   -2.2202 H   0  0  0  0  0  0
   -1.1581    3.9540   -1.3530 H   0  0  0  0  0  0
   -2.6924    4.8232   -1.2495 H   0  0  0  0  0  0
   -2.4694    0.9929    0.7349 H   0  0  0  0  0  0
   -2.4438    1.0515   -1.0196 H   0  0  0  0  0  0
   -0.1202    1.9675   -0.9774 H   0  0  0  0  0  0
   -0.1649    2.0527    0.7757 H   0  0  0  0  0  0
   -0.4197   -0.4443    0.8870 H   0  0  0  0  0  0
   -0.3999   -0.5287   -0.8661 H   0  0  0  0  0  0
    1.9204    0.4450   -0.8868 H   0  0  0  0  0  0
    1.9006    0.5289    0.8663 H   0  0  0  0  0  0
    1.6209   -1.9674    0.9769 H   0  0  0  0  0  0
    1.6654   -2.0521   -0.7762 H   0  0  0  0  0  0
    3.9700   -0.9931   -0.7357 H   0  0  0  0  0  0
    3.9447   -1.0512    1.0187 H   0  0  0  0  0  0
    3.7649   -3.4778   -0.8296 H   0  0  0  0  0  0
    4.0753   -3.3484    2.2199 H   0  0  0  0  0  0
    4.1894   -4.8236    1.2489 H   0  0  0  0  0  0
    2.6560   -3.9527    1.3513 H   0  0  0  0  0  0
    6.1263   -2.4475    0.8378 H   0  0  0  0  0  0
    6.0027   -2.3667   -0.9260 H   0  0  0  0  0  0
    6.1162   -3.9379   -0.1158 H   0  0  0  0  0  0
  1  2  1  0  0  0
  1 13  1  0  0  0
  1 14  1  0  0  0
  1 15  1  0  0  0
  2  3  1  0  0  0
  2  4  1  0  0  0
  2 16  1  0  0  0
  3 17  1  0  0  0
  3 18  1  0  0  0
  3 19  1  0  0  0
  4  5  1  0  0  0
  4 20  1  0  0  0
  4 21  1  0  0  0
  5  6  1  0  0  0
  5 22  1  0  0  0
  5 23  1  0  0  0
  6  7  1  0  0  0
  6 24  1  0  0  0
  6 25  1  0  0  0
  7  8  1  0  0  0
  7 26  1  0  0  0
  7 27  1  0  0  0
  8  9  1  0  0  0
  8 28  1  0  0  0
  8 29  1  0  0  0
  9 10  1  0  0  0
  9 30  1  0  0  0
  9 31  1  0  0  0
 10 11  1  0  0  0
 10 12  1  0  0  0
 10 32  1  0  0  0
 11 33  1  0  0  0
 11 34  1  0  0  0
 11 35  1  0  0  0
 12 36  1  0  0  0
 12 37  1  0  0  0
 12 38  1  0  0  0
M  END
>  <i_m_Spin_multiplicity> (1)
1

>  <s_j_Task> (1)
Single Point

>  <s_j_QM_Method> (1)
DFT(b3lyp-d3)

>  <s_j_QM_Basis> (1)
cc-pvtz(-f)

>  <i_j_Number_of_canonical_orbitals> (1)
506

>  <i_j_Geometry_convergence_category> (1)
3

>  <r_j_Gas_Phase_Energy> (1)
-473.16025177484

>  <r_j_Final_Energy> (1)
-473.16025177484

>  <r_j_HOMO> (1)
-0.291428845176145

>  <r_j_LUMO> (1)
0.0161652117846878

>  <r_j_Polarizability> (1)
149.667437222907

>  <r_j_QM_Dipole_(debye)> (1)
0.000161463076710898

>  <r_j_QM_Dipole_X_(debye)> (1)
1.10547794695465e-05

>  <r_j_QM_Dipole_Y_(debye)> (1)
9.68851211644906e-05

>  <r_j_QM_Dipole_Z_(debye)> (1)
-0.000128691065302805

>  <r_j_Lowest_Frequency_(cm-1)> (1)
51.7576820742708

>  <r_j_Highest_Frequency_(cm-1)> (1)
3054.61972383353

>  <r_j_2nd_Lowest_Frequency_(cm-1)> (1)
62.8596579960051

>  <i_j_Num_Negative_Frequencies> (1)
0

>  <r_j_Zero_Point_Energy_(kcal/mol)> (1)
225.160794092994

>  <r_j_Entropy_(cal/mol/K)_298.15K_1.00E+00atm> (1)
119.536044230831

>  <r_j_Enthalpy_(kcal/mol)_298.15K_1.00E+00atm> (1)
10.0608655550662

>  <r_j_Free_Energy_(kcal/mol)_298.15K_1.00E+00atm> (1)
-25.578806032356

>  <r_j_Internal_Energy_(kcal/mol)_298.15K_1.00E+00atm> (1)
9.46837996623889

>  <r_j_Heat_Capacity_(cal/mol/K)_298.15K_1.00E+00atm> (1)
58.11312230752

>  <r_j_ln(Q)_298.15K_1.00E+00atm> (1)
43.1720307037087

>  <r_j_Total_Internal_Energy_(au)_298.15K_1.00E+00atm> (1)
-472.786346383326

>  <r_j_Total_Enthalpy_(au)_298.15K_1.00E+00atm> (1)
-472.785402197434

>  <r_j_Total_Free_Energy_(au)_298.15K_1.00E+00atm> (1)
-472.84219762968

>  <r_lp_tautomer_probability> (1)
1

>  <r_epik_Ionization_Penalty> (1)
  0.0000

>  <r_epik_Ionization_Penalty_Charging> (1)
  0.0000

>  <r_epik_Ionization_Penalty_Neutral> (1)
  0.0000

>  <r_epik_State_Penalty> (1)
  0.0000

>  <r_epik_Charging_Adjusted_Penalty> (1)
0

>  <i_epik_Tot_Q> (1)
0

>  <i_epik_Tot_abs_Q> (1)
0

>  <s_lp_Force_Field> (1)
S-OPLS

>  <r_lp_Energy> (1)
5.80868

>  <b_lp_Chiralities_Consistent> (1)
1

$$$$
