518457_2,2,6-trimethylheptane
                    3D
 Schrodinger Suite 2021-3.
 32 31  0  0  1  0            999 V2000
   -0.8462   -0.5408   -1.2027 C   0  0  0  0  0  0
   -0.1258    0.1533   -0.0373 C   0  0  0  0  0  0
   -0.5135    1.6378    0.0239 C   0  0  0  0  0  0
    1.4047    0.0010   -0.1200 C   0  0  0  0  0  0
    1.9198   -1.4433   -0.0564 C   0  0  0  0  0  0
    3.4522   -1.5084   -0.0047 C   0  0  0  0  0  0
    4.0971   -2.9179    0.0184 C   0  0  0  0  0  0
    3.6210   -3.7181    1.2455 C   0  0  0  0  0  0
    5.6257   -2.7405    0.1016 C   0  0  0  0  0  0
    3.7575   -3.6977   -1.2657 C   0  0  0  0  0  0
   -0.5107   -0.1292   -2.1630 H   0  0  0  0  0  0
   -1.9297   -0.3925   -1.1384 H   0  0  0  0  0  0
   -0.6609   -1.6189   -1.2183 H   0  0  0  0  0  0
   -0.4574   -0.3227    0.8983 H   0  0  0  0  0  0
   -0.2031    2.1573   -0.8915 H   0  0  0  0  0  0
   -0.0351    2.1424    0.8705 H   0  0  0  0  0  0
   -1.5970    1.7636    0.1252 H   0  0  0  0  0  0
    1.7596    0.4737   -1.0483 H   0  0  0  0  0  0
    1.8577    0.5738    0.7018 H   0  0  0  0  0  0
    1.4924   -1.9340    0.8278 H   0  0  0  0  0  0
    1.5553   -2.0017   -0.9257 H   0  0  0  0  0  0
    3.8554   -0.9616   -0.8696 H   0  0  0  0  0  0
    3.7954   -0.9592    0.8841 H   0  0  0  0  0  0
    4.1405   -4.6811    1.3048 H   0  0  0  0  0  0
    2.5472   -3.9262    1.2031 H   0  0  0  0  0  0
    3.8218   -3.1715    2.1743 H   0  0  0  0  0  0
    5.9117   -2.1990    1.0106 H   0  0  0  0  0  0
    6.0052   -2.1757   -0.7578 H   0  0  0  0  0  0
    6.1347   -3.7109    0.1158 H   0  0  0  0  0  0
    4.2750   -4.6636   -1.2796 H   0  0  0  0  0  0
    4.0653   -3.1403   -2.1579 H   0  0  0  0  0  0
    2.6848   -3.8993   -1.3481 H   0  0  0  0  0  0
  1  2  1  0  0  0
  1 11  1  0  0  0
  1 12  1  0  0  0
  1 13  1  0  0  0
  2  3  1  0  0  0
  2  4  1  0  0  0
  2 14  1  0  0  0
  3 15  1  0  0  0
  3 16  1  0  0  0
  3 17  1  0  0  0
  4  5  1  0  0  0
  4 18  1  0  0  0
  4 19  1  0  0  0
  5  6  1  0  0  0
  5 20  1  0  0  0
  5 21  1  0  0  0
  6  7  1  0  0  0
  6 22  1  0  0  0
  6 23  1  0  0  0
  7  8  1  0  0  0
  7  9  1  0  0  0
  7 10  1  0  0  0
  8 24  1  0  0  0
  8 25  1  0  0  0
  8 26  1  0  0  0
  9 27  1  0  0  0
  9 28  1  0  0  0
  9 29  1  0  0  0
 10 30  1  0  0  0
 10 31  1  0  0  0
 10 32  1  0  0  0
M  END
>  <i_m_Spin_multiplicity> (1)
1

>  <s_j_Task> (1)
Single Point

>  <s_j_QM_Method> (1)
DFT(b3lyp-d3)

>  <s_j_QM_Basis> (1)
cc-pvtz(-f)

>  <i_j_Number_of_canonical_orbitals> (1)
425

>  <i_j_Geometry_convergence_category> (1)
0

>  <r_j_Gas_Phase_Energy> (1)
-394.50231397167

>  <r_j_Final_Energy> (1)
-394.50231397167

>  <r_j_HOMO> (1)
-0.304887189834043

>  <r_j_LUMO> (1)
0.0113125500913035

>  <r_j_Polarizability> (1)
123.496323223827

>  <r_j_QM_Dipole_(debye)> (1)
0.111507683520702

>  <r_j_QM_Dipole_X_(debye)> (1)
-0.0544095692088656

>  <r_j_QM_Dipole_Y_(debye)> (1)
-0.0517047578619746

>  <r_j_QM_Dipole_Z_(debye)> (1)
0.082463205595546

>  <r_j_Lowest_Frequency_(cm-1)> (1)
72.6928464475503

>  <r_j_Highest_Frequency_(cm-1)> (1)
3054.76605073737

>  <r_j_2nd_Lowest_Frequency_(cm-1)> (1)
82.6440936359901

>  <i_j_Num_Negative_Frequencies> (1)
0

>  <r_j_Zero_Point_Energy_(kcal/mol)> (1)
189.112083197187

>  <r_j_Entropy_(cal/mol/K)_298.15K_1.00E+00atm> (1)
106.384696878568

>  <r_j_Enthalpy_(kcal/mol)_298.15K_1.00E+00atm> (1)
8.45644188524862

>  <r_j_Free_Energy_(kcal/mol)_298.15K_1.00E+00atm> (1)
-23.2621554890966

>  <r_j_Internal_Energy_(kcal/mol)_298.15K_1.00E+00atm> (1)
7.86395629642135

>  <r_j_Heat_Capacity_(cal/mol/K)_298.15K_1.00E+00atm> (1)
49.4060077923572

>  <r_j_ln(Q)_298.15K_1.00E+00atm> (1)
39.2619768780201

>  <r_j_Total_Internal_Energy_(au)_298.15K_1.00E+00atm> (1)
-394.188412669919

>  <r_j_Total_Enthalpy_(au)_298.15K_1.00E+00atm> (1)
-394.187468484027

>  <r_j_Total_Free_Energy_(au)_298.15K_1.00E+00atm> (1)
-394.23801528673

>  <r_lp_tautomer_probability> (1)
1

>  <r_epik_Ionization_Penalty> (1)
  0.0000

>  <r_epik_Ionization_Penalty_Charging> (1)
  0.0000

>  <r_epik_Ionization_Penalty_Neutral> (1)
  0.0000

>  <r_epik_State_Penalty> (1)
  0.0000

>  <r_epik_Charging_Adjusted_Penalty> (1)
0

>  <i_epik_Tot_Q> (1)
0

>  <i_epik_Tot_abs_Q> (1)
0

>  <s_lp_Force_Field> (1)
S-OPLS

>  <r_lp_Energy> (1)
6.38731

>  <b_lp_Chiralities_Consistent> (1)
1

$$$$
