518713_4-methyl-1-heptene
                    3D
 Schrodinger Suite 2021-3.
 24 23  0  0  1  0            999 V2000
   -2.1470    1.4754    0.0452 C   0  0  0  0  0  0
   -0.6156    1.4776   -0.0034 C   0  0  0  0  0  0
   -0.0312    0.0649   -0.1287 C   0  0  0  0  0  0
    1.5050   -0.0144   -0.0641 C   0  0  0  0  0  0
    2.1758    0.7116   -1.2387 C   0  0  0  0  0  0
    1.9818   -1.4870   -0.0117 C   0  0  0  0  0  0
    1.5554   -2.2204    1.2291 C   0  0  0  0  0  0
    0.7900   -3.3115    1.2622 C   0  0  0  0  0  0
   -2.5494    2.4902    0.1294 H   0  0  0  0  0  0
   -2.5134    0.8976    0.9015 H   0  0  0  0  0  0
   -2.5683    1.0235   -0.8604 H   0  0  0  0  0  0
   -0.2833    2.1008   -0.8426 H   0  0  0  0  0  0
   -0.2200    1.9527    0.9052 H   0  0  0  0  0  0
   -0.4490   -0.5619    0.6690 H   0  0  0  0  0  0
   -0.3693   -0.3869   -1.0738 H   0  0  0  0  0  0
    1.8291    0.4731    0.8689 H   0  0  0  0  0  0
    1.8646    0.2696   -2.1934 H   0  0  0  0  0  0
    3.2672    0.6386   -1.1780 H   0  0  0  0  0  0
    1.9170    1.7739   -1.2637 H   0  0  0  0  0  0
    1.6194   -2.0160   -0.9035 H   0  0  0  0  0  0
    3.0801   -1.4945   -0.0681 H   0  0  0  0  0  0
    1.9112   -1.7961    2.1698 H   0  0  0  0  0  0
    0.4082   -3.7655    0.3506 H   0  0  0  0  0  0
    0.5192   -3.7936    2.1971 H   0  0  0  0  0  0
  1  2  1  0  0  0
  1  9  1  0  0  0
  1 10  1  0  0  0
  1 11  1  0  0  0
  2  3  1  0  0  0
  2 12  1  0  0  0
  2 13  1  0  0  0
  3  4  1  0  0  0
  3 14  1  0  0  0
  3 15  1  0  0  0
  4  5  1  0  0  0
  4  6  1  0  0  0
  4 16  1  0  0  0
  5 17  1  0  0  0
  5 18  1  0  0  0
  5 19  1  0  0  0
  6  7  1  0  0  0
  6 20  1  0  0  0
  6 21  1  0  0  0
  7  8  2  0  0  0
  7 22  1  0  0  0
  8 23  1  0  0  0
  8 24  1  0  0  0
M  END
>  <i_m_Spin_multiplicity> (1)
1

>  <s_j_Task> (1)
Single Point

>  <s_j_QM_Method> (1)
DFT(b3lyp-d3)

>  <s_j_QM_Basis> (1)
cc-pvtz(-f)

>  <i_j_Number_of_canonical_orbitals> (1)
325

>  <i_j_Geometry_convergence_category> (1)
0

>  <r_j_Gas_Phase_Energy> (1)
-314.603520040646

>  <r_j_Final_Energy> (1)
-314.603520040646

>  <r_j_HOMO> (1)
-0.274056085550384

>  <r_j_LUMO> (1)
-0.0101504514908881

>  <r_j_Polarizability> (1)
97.7605685682073

>  <r_j_QM_Dipole_(debye)> (1)
0.369287980627526

>  <r_j_QM_Dipole_X_(debye)> (1)
0.179580535899748

>  <r_j_QM_Dipole_Y_(debye)> (1)
0.319874001458079

>  <r_j_QM_Dipole_Z_(debye)> (1)
-0.0424860795215538

>  <r_j_Lowest_Frequency_(cm-1)> (1)
98.2286643677566

>  <r_j_Highest_Frequency_(cm-1)> (1)
3167.89504232742

>  <r_j_2nd_Lowest_Frequency_(cm-1)> (1)
130.897425424796

>  <i_j_Num_Negative_Frequencies> (1)
0

>  <r_j_Zero_Point_Energy_(kcal/mol)> (1)
139.118627639752

>  <r_j_Entropy_(cal/mol/K)_298.15K_1.00E+00atm> (1)
94.798796653259

>  <r_j_Enthalpy_(kcal/mol)_298.15K_1.00E+00atm> (1)
6.73654054169493

>  <r_j_Free_Energy_(kcal/mol)_298.15K_1.00E+00atm> (1)
-21.5277206804742

>  <r_j_Internal_Energy_(kcal/mol)_298.15K_1.00E+00atm> (1)
6.14405495286766

>  <r_j_Heat_Capacity_(cal/mol/K)_298.15K_1.00E+00atm> (1)
36.8681022891651

>  <r_j_ln(Q)_298.15K_1.00E+00atm> (1)
36.3345895434938

>  <r_j_Total_Internal_Energy_(au)_298.15K_1.00E+00atm> (1)
-314.372029219332

>  <r_j_Total_Enthalpy_(au)_298.15K_1.00E+00atm> (1)
-314.371085033439

>  <r_j_Total_Free_Energy_(au)_298.15K_1.00E+00atm> (1)
-314.416127001048

>  <r_lp_tautomer_probability> (1)
1

>  <r_epik_Ionization_Penalty> (1)
  0.0000

>  <r_epik_Ionization_Penalty_Charging> (1)
  0.0000

>  <r_epik_Ionization_Penalty_Neutral> (1)
  0.0000

>  <r_epik_State_Penalty> (1)
  0.0000

>  <r_epik_Charging_Adjusted_Penalty> (1)
0

>  <i_epik_Tot_Q> (1)
0

>  <i_epik_Tot_abs_Q> (1)
0

>  <s_lp_Force_Field> (1)
S-OPLS

>  <r_lp_Energy> (1)
1.60358

>  <b_lp_Chiralities_Consistent> (1)
1

$$$$
