519147_Iso-nonacosane
                    3D
 Schrodinger Suite 2021-3.
 89 88  0  0  1  0            999 V2000
   -7.5667    4.9506    8.7242 C   0  0  0  0  0  0
   -6.8937    5.3287    7.4014 C   0  0  0  0  0  0
   -7.4211    4.5265    6.2056 C   0  0  0  0  0  0
   -6.7467    4.9002    4.8810 C   0  0  0  0  0  0
   -7.2612    4.1005    3.6786 C   0  0  0  0  0  0
   -6.5700    4.4801    2.3639 C   0  0  0  0  0  0
   -7.0577    3.6646    1.1603 C   0  0  0  0  0  0
   -6.4406    4.0920   -0.1831 C   0  0  0  0  0  0
   -4.9038    4.0539   -0.2440 C   0  0  0  0  0  0
   -4.2913    2.6753    0.0322 C   0  0  0  0  0  0
   -2.7604    2.6682   -0.0525 C   0  0  0  0  0  0
   -2.1434    1.2845    0.1821 C   0  0  0  0  0  0
   -0.6104    1.2868    0.1571 C   0  0  0  0  0  0
    0.0033   -0.1090    0.3170 C   0  0  0  0  0  0
    1.5365   -0.1055    0.3317 C   0  0  0  0  0  0
    2.1463   -1.5103    0.4010 C   0  0  0  0  0  0
    3.6790   -1.5123    0.4412 C   0  0  0  0  0  0
    4.2838   -2.9206    0.4104 C   0  0  0  0  0  0
    5.8158   -2.9334    0.4680 C   0  0  0  0  0  0
    6.4135   -4.3387    0.3335 C   0  0  0  0  0  0
    7.9446   -4.3672    0.4080 C   0  0  0  0  0  0
    8.5336   -5.7629    0.1736 C   0  0  0  0  0  0
   10.0626   -5.8120    0.2720 C   0  0  0  0  0  0
   10.6432   -7.1935   -0.0519 C   0  0  0  0  0  0
   12.1683   -7.2631    0.0979 C   0  0  0  0  0  0
   12.7924   -8.5799   -0.3930 C   0  0  0  0  0  0
   12.2541   -9.8707    0.2565 C   0  0  0  0  0  0
   12.3995   -9.8577    1.7844 C   0  0  0  0  0  0
   12.9556  -11.0975   -0.3434 C   0  0  0  0  0  0
   -7.1713    5.5377    9.5598 H   0  0  0  0  0  0
   -7.4101    3.8910    8.9573 H   0  0  0  0  0  0
   -8.6486    5.1211    8.6789 H   0  0  0  0  0  0
   -7.0376    6.4007    7.2084 H   0  0  0  0  0  0
   -5.8084    5.1794    7.4851 H   0  0  0  0  0  0
   -7.2788    3.4530    6.3975 H   0  0  0  0  0  0
   -8.5070    4.6761    6.1181 H   0  0  0  0  0  0
   -6.8908    5.9736    4.6908 H   0  0  0  0  0  0
   -5.6608    4.7541    4.9743 H   0  0  0  0  0  0
   -7.1177    3.0267    3.8674 H   0  0  0  0  0  0
   -8.3462    4.2473    3.5784 H   0  0  0  0  0  0
   -6.7251    5.5506    2.1653 H   0  0  0  0  0  0
   -5.4864    4.3497    2.4853 H   0  0  0  0  0  0
   -6.8570    2.6004    1.3423 H   0  0  0  0  0  0
   -8.1502    3.7524    1.0869 H   0  0  0  0  0  0
   -6.8447    3.4492   -0.9771 H   0  0  0  0  0  0
   -6.7751    5.1119   -0.4170 H   0  0  0  0  0  0
   -4.5842    4.3922   -1.2390 H   0  0  0  0  0  0
   -4.4866    4.7816    0.4646 H   0  0  0  0  0  0
   -4.5911    2.3263    1.0294 H   0  0  0  0  0  0
   -4.7026    1.9453   -0.6801 H   0  0  0  0  0  0
   -2.4460    3.0425   -1.0373 H   0  0  0  0  0  0
   -2.3554    3.3780    0.6834 H   0  0  0  0  0  0
   -2.4896    0.8895    1.1481 H   0  0  0  0  0  0
   -2.5191    0.5874   -0.5807 H   0  0  0  0  0  0
   -0.2623    1.7274   -0.7882 H   0  0  0  0  0  0
   -0.2354    1.9456    0.9535 H   0  0  0  0  0  0
   -0.3680   -0.5680    1.2446 H   0  0  0  0  0  0
   -0.3503   -0.7535   -0.5007 H   0  0  0  0  0  0
    1.9074    0.4037   -0.5695 H   0  0  0  0  0  0
    1.8913    0.4919    1.1838 H   0  0  0  0  0  0
    1.7584   -2.0350    1.2860 H   0  0  0  0  0  0
    1.8063   -2.0925   -0.4675 H   0  0  0  0  0  0
    4.0654   -0.9362   -0.4119 H   0  0  0  0  0  0
    4.0214   -0.9839    1.3426 H   0  0  0  0  0  0
    3.8832   -3.5099    1.2478 H   0  0  0  0  0  0
    3.9522   -3.4331   -0.5042 H   0  0  0  0  0  0
    6.2149   -2.2945   -0.3330 H   0  0  0  0  0  0
    6.1501   -2.4793    1.4118 H   0  0  0  0  0  0
    5.9993   -4.9892    1.1172 H   0  0  0  0  0  0
    6.0901   -4.7756   -0.6223 H   0  0  0  0  0  0
    8.3582   -3.6717   -0.3365 H   0  0  0  0  0  0
    8.2699   -3.9898    1.3880 H   0  0  0  0  0  0
    8.1009   -6.4685    0.8974 H   0  0  0  0  0  0
    8.2233   -6.1214   -0.8185 H   0  0  0  0  0  0
   10.4969   -5.0677   -0.4109 H   0  0  0  0  0  0
   10.3729   -5.5118    1.2832 H   0  0  0  0  0  0
   10.1716   -7.9411    0.5999 H   0  0  0  0  0  0
   10.3656   -7.4708   -1.0794 H   0  0  0  0  0  0
   12.6207   -6.4355   -0.4653 H   0  0  0  0  0  0
   12.4359   -7.0881    1.1484 H   0  0  0  0  0  0
   12.6472   -8.6538   -1.4801 H   0  0  0  0  0  0
   13.8797   -8.5385   -0.2339 H   0  0  0  0  0  0
   11.1840   -9.9517    0.0188 H   0  0  0  0  0  0
   13.4509   -9.7330    2.0725 H   0  0  0  0  0  0
   12.0445  -10.7977    2.2205 H   0  0  0  0  0  0
   11.8296   -9.0442    2.2441 H   0  0  0  0  0  0
   14.0306  -11.0768   -0.1244 H   0  0  0  0  0  0
   12.8393  -11.1319   -1.4324 H   0  0  0  0  0  0
   12.5509  -12.0288    0.0676 H   0  0  0  0  0  0
  1  2  1  0  0  0
  1 30  1  0  0  0
  1 31  1  0  0  0
  1 32  1  0  0  0
  2  3  1  0  0  0
  2 33  1  0  0  0
  2 34  1  0  0  0
  3  4  1  0  0  0
  3 35  1  0  0  0
  3 36  1  0  0  0
  4  5  1  0  0  0
  4 37  1  0  0  0
  4 38  1  0  0  0
  5  6  1  0  0  0
  5 39  1  0  0  0
  5 40  1  0  0  0
  6  7  1  0  0  0
  6 41  1  0  0  0
  6 42  1  0  0  0
  7  8  1  0  0  0
  7 43  1  0  0  0
  7 44  1  0  0  0
  8  9  1  0  0  0
  8 45  1  0  0  0
  8 46  1  0  0  0
  9 10  1  0  0  0
  9 47  1  0  0  0
  9 48  1  0  0  0
 10 11  1  0  0  0
 10 49  1  0  0  0
 10 50  1  0  0  0
 11 12  1  0  0  0
 11 51  1  0  0  0
 11 52  1  0  0  0
 12 13  1  0  0  0
 12 53  1  0  0  0
 12 54  1  0  0  0
 13 14  1  0  0  0
 13 55  1  0  0  0
 13 56  1  0  0  0
 14 15  1  0  0  0
 14 57  1  0  0  0
 14 58  1  0  0  0
 15 16  1  0  0  0
 15 59  1  0  0  0
 15 60  1  0  0  0
 16 17  1  0  0  0
 16 61  1  0  0  0
 16 62  1  0  0  0
 17 18  1  0  0  0
 17 63  1  0  0  0
 17 64  1  0  0  0
 18 19  1  0  0  0
 18 65  1  0  0  0
 18 66  1  0  0  0
 19 20  1  0  0  0
 19 67  1  0  0  0
 19 68  1  0  0  0
 20 21  1  0  0  0
 20 69  1  0  0  0
 20 70  1  0  0  0
 21 22  1  0  0  0
 21 71  1  0  0  0
 21 72  1  0  0  0
 22 23  1  0  0  0
 22 73  1  0  0  0
 22 74  1  0  0  0
 23 24  1  0  0  0
 23 75  1  0  0  0
 23 76  1  0  0  0
 24 25  1  0  0  0
 24 77  1  0  0  0
 24 78  1  0  0  0
 25 26  1  0  0  0
 25 79  1  0  0  0
 25 80  1  0  0  0
 26 27  1  0  0  0
 26 81  1  0  0  0
 26 82  1  0  0  0
 27 28  1  0  0  0
 27 29  1  0  0  0
 27 83  1  0  0  0
 28 84  1  0  0  0
 28 85  1  0  0  0
 28 86  1  0  0  0
 29 87  1  0  0  0
 29 88  1  0  0  0
 29 89  1  0  0  0
M  END
>  <i_m_Spin_multiplicity> (1)
1

>  <s_j_Task> (1)
Single Point

>  <s_j_QM_Method> (1)
DFT(b3lyp-d3)

>  <s_j_QM_Basis> (1)
cc-pvtz(-f)

>  <i_j_Number_of_canonical_orbitals> (1)
1197

>  <i_j_Geometry_convergence_category> (1)
3

>  <r_j_Gas_Phase_Energy> (1)
-1141.75796873716

>  <r_j_Final_Energy> (1)
-1141.75796873716

>  <r_j_HOMO> (1)
-0.285359983809856

>  <r_j_LUMO> (1)
-0.0246662409934026

>  <r_j_Polarizability> (1)
362.034603270298

>  <r_j_QM_Dipole_(debye)> (1)
0.157712278285431

>  <r_j_QM_Dipole_X_(debye)> (1)
-0.09280343099972

>  <r_j_QM_Dipole_Y_(debye)> (1)
0.0913935116446212

>  <r_j_QM_Dipole_Z_(debye)> (1)
-0.0889264412080343

>  <r_j_Lowest_Frequency_(cm-1)> (1)
16.9688815795508

>  <r_j_Highest_Frequency_(cm-1)> (1)
3050.21981619057

>  <r_j_2nd_Lowest_Frequency_(cm-1)> (1)
20.7558797944899

>  <i_j_Num_Negative_Frequencies> (1)
0

>  <r_j_Zero_Point_Energy_(kcal/mol)> (1)
529.478379108582

>  <r_j_Entropy_(cal/mol/K)_298.15K_1.00E+00atm> (1)
211.250630591174

>  <r_j_Enthalpy_(kcal/mol)_298.15K_1.00E+00atm> (1)
22.9254632029242

>  <r_j_Free_Energy_(kcal/mol)_298.15K_1.00E+00atm> (1)
-40.0589123078344

>  <r_j_Internal_Energy_(kcal/mol)_298.15K_1.00E+00atm> (1)
22.3329776140969

>  <r_j_Heat_Capacity_(cal/mol/K)_298.15K_1.00E+00atm> (1)
138.042156381008

>  <r_j_ln(Q)_298.15K_1.00E+00atm> (1)
67.6116230727642

>  <r_j_Total_Internal_Energy_(au)_298.15K_1.00E+00atm> (1)
-1140.87860136009

>  <r_j_Total_Enthalpy_(au)_298.15K_1.00E+00atm> (1)
-1140.87765717419

>  <r_j_Total_Free_Energy_(au)_298.15K_1.00E+00atm> (1)
-1140.97802916621

>  <r_lp_tautomer_probability> (1)
1

>  <r_epik_Ionization_Penalty> (1)
  0.0000

>  <r_epik_Ionization_Penalty_Charging> (1)
  0.0000

>  <r_epik_Ionization_Penalty_Neutral> (1)
  0.0000

>  <r_epik_State_Penalty> (1)
  0.0000

>  <r_epik_Charging_Adjusted_Penalty> (1)
0

>  <i_epik_Tot_Q> (1)
0

>  <i_epik_Tot_abs_Q> (1)
0

>  <s_lp_Force_Field> (1)
S-OPLS

>  <r_lp_Energy> (1)
15.363118

>  <b_lp_Chiralities_Consistent> (1)
1

$$$$
