519283_1-Methyl-2-isopropylcyclohexane
                    3D
 Schrodinger Suite 2021-3.
 30 30  0  0  1  0            999 V2000
   -0.0513   -0.0820    2.5457 C   0  0  0  0  0  0
   -0.5849   -0.7373    1.2653 C   0  0  0  0  0  0
   -2.1264   -0.7035    1.2526 C   0  0  0  0  0  0
   -2.7188   -1.3859    0.0141 C   0  0  0  0  0  0
   -2.1514   -0.7717   -1.2709 C   0  0  0  0  0  0
   -0.6166   -0.8016   -1.2685 C   0  0  0  0  0  0
   -0.0228   -0.0943   -0.0315 C   0  0  0  0  0  0
    1.5278    0.0047   -0.0635 C   0  0  0  0  0  0
    2.0340    0.7794   -1.2912 C   0  0  0  0  0  0
    2.2366   -1.3550    0.0398 C   0  0  0  0  0  0
   -0.2369    0.9992    2.5369 H   0  0  0  0  0  0
    1.0238   -0.2346    2.6756 H   0  0  0  0  0  0
   -0.5502   -0.4965    3.4285 H   0  0  0  0  0  0
   -0.2862   -1.7967    1.2726 H   0  0  0  0  0  0
   -2.5099   -1.1762    2.1658 H   0  0  0  0  0  0
   -2.4570    0.3457    1.2841 H   0  0  0  0  0  0
   -2.4731   -2.4573    0.0410 H   0  0  0  0  0  0
   -3.8132   -1.3153    0.0258 H   0  0  0  0  0  0
   -2.5386   -1.2968   -2.1526 H   0  0  0  0  0  0
   -2.4903    0.2710   -1.3530 H   0  0  0  0  0  0
   -0.2810   -1.8477   -1.2858 H   0  0  0  0  0  0
   -0.2417   -0.3392   -2.1876 H   0  0  0  0  0  0
   -0.3931    0.9450   -0.0471 H   0  0  0  0  0  0
    1.8211    0.5938    0.8148 H   0  0  0  0  0  0
    1.9037    0.2082   -2.2165 H   0  0  0  0  0  0
    3.1029    0.9983   -1.1936 H   0  0  0  0  0  0
    1.5056    1.7325   -1.4087 H   0  0  0  0  0  0
    1.9943   -1.9982   -0.8133 H   0  0  0  0  0  0
    1.9631   -1.8933    0.9523 H   0  0  0  0  0  0
    3.3237   -1.2211    0.0491 H   0  0  0  0  0  0
  1  2  1  0  0  0
  1 11  1  0  0  0
  1 12  1  0  0  0
  1 13  1  0  0  0
  2  7  1  0  0  0
  2  3  1  0  0  0
  2 14  1  0  0  0
  3  4  1  0  0  0
  3 15  1  0  0  0
  3 16  1  0  0  0
  4  5  1  0  0  0
  4 17  1  0  0  0
  4 18  1  0  0  0
  5  6  1  0  0  0
  5 19  1  0  0  0
  5 20  1  0  0  0
  6  7  1  0  0  0
  6 21  1  0  0  0
  6 22  1  0  0  0
  7  8  1  0  0  0
  7 23  1  0  0  0
  8  9  1  0  0  0
  8 10  1  0  0  0
  8 24  1  0  0  0
  9 25  1  0  0  0
  9 26  1  0  0  0
  9 27  1  0  0  0
 10 28  1  0  0  0
 10 29  1  0  0  0
 10 30  1  0  0  0
M  END
>  <i_m_Spin_multiplicity> (1)
1

>  <s_j_Task> (1)
Single Point

>  <s_j_QM_Method> (1)
DFT(b3lyp-d3)

>  <s_j_QM_Basis> (1)
cc-pvtz(-f)

>  <i_j_Number_of_canonical_orbitals> (1)
406

>  <i_j_Geometry_convergence_category> (1)
3

>  <r_j_Gas_Phase_Energy> (1)
-393.290848406402

>  <r_j_Final_Energy> (1)
-393.290848406402

>  <r_j_HOMO> (1)
-0.290029477750849

>  <r_j_LUMO> (1)
0.0237784313255607

>  <r_j_Polarizability> (1)
116.623772764316

>  <r_j_QM_Dipole_(debye)> (1)
0.0382309457384349

>  <r_j_QM_Dipole_X_(debye)> (1)
-0.0193961902660883

>  <r_j_QM_Dipole_Y_(debye)> (1)
-0.0100849446065525

>  <r_j_QM_Dipole_Z_(debye)> (1)
0.0313637833734966

>  <r_j_Lowest_Frequency_(cm-1)> (1)
105.829145103708

>  <r_j_Highest_Frequency_(cm-1)> (1)
3056.55974668905

>  <r_j_2nd_Lowest_Frequency_(cm-1)> (1)
124.873593566838

>  <i_j_Num_Negative_Frequencies> (1)
0

>  <r_j_Zero_Point_Energy_(kcal/mol)> (1)
177.223330991221

>  <r_j_Entropy_(cal/mol/K)_298.15K_1.00E+00atm> (1)
97.2116413907373

>  <r_j_Enthalpy_(kcal/mol)_298.15K_1.00E+00atm> (1)
7.22462220104583

>  <r_j_Free_Energy_(kcal/mol)_298.15K_1.00E+00atm> (1)
-21.7590286796025

>  <r_j_Internal_Energy_(kcal/mol)_298.15K_1.00E+00atm> (1)
6.63213661221855

>  <r_j_Heat_Capacity_(cal/mol/K)_298.15K_1.00E+00atm> (1)
43.3786739869444

>  <r_j_ln(Q)_298.15K_1.00E+00atm> (1)
36.7249922865986

>  <r_j_Total_Internal_Energy_(au)_298.15K_1.00E+00atm> (1)
-392.997856067014

>  <r_j_Total_Enthalpy_(au)_298.15K_1.00E+00atm> (1)
-392.996911881122

>  <r_j_Total_Free_Energy_(au)_298.15K_1.00E+00atm> (1)
-393.043100269132

>  <r_lp_tautomer_probability> (1)
1

>  <r_epik_Ionization_Penalty> (1)
  0.0000

>  <r_epik_Ionization_Penalty_Charging> (1)
  0.0000

>  <r_epik_Ionization_Penalty_Neutral> (1)
  0.0000

>  <r_epik_State_Penalty> (1)
  0.0000

>  <r_epik_Charging_Adjusted_Penalty> (1)
0

>  <i_epik_Tot_Q> (1)
0

>  <i_epik_Tot_abs_Q> (1)
0

>  <s_lp_Force_Field> (1)
S-OPLS

>  <r_lp_Energy> (1)
14.9846

>  <b_lp_Chiralities_Consistent> (1)
1

$$$$
