519210_1-ethyl-2-npropylbenzene
                    3D
 Schrodinger Suite 2021-3.
 27 27  0  0  1  0            999 V2000
   -0.1249    2.3052   -1.2366 C   0  0  0  0  0  0
   -0.5507    1.4297   -0.0547 C   0  0  0  0  0  0
    0.0185   -0.0071   -0.1109 C   0  0  0  0  0  0
    1.5320   -0.0598   -0.0287 C   0  0  0  0  0  0
    2.2792   -0.1211   -1.2130 C   0  0  0  0  0  0
    3.6728   -0.1183   -1.2021 C   0  0  0  0  0  0
    4.3481   -0.0557    0.0151 C   0  0  0  0  0  0
    3.6179    0.0013    1.2004 C   0  0  0  0  0  0
    2.2172    0.0020    1.2034 C   0  0  0  0  0  0
    1.4933   -0.0067    2.5364 C   0  0  0  0  0  0
    1.2340   -1.4380    3.0406 C   0  0  0  0  0  0
   -0.5633    3.3057   -1.1641 H   0  0  0  0  0  0
   -0.4478    1.8667   -2.1883 H   0  0  0  0  0  0
    0.9630    2.4154   -1.2758 H   0  0  0  0  0  0
   -0.2359    1.9072    0.8813 H   0  0  0  0  0  0
   -1.6458    1.3680   -0.0183 H   0  0  0  0  0  0
   -0.4300   -0.5993    0.6938 H   0  0  0  0  0  0
   -0.3060   -0.4740   -1.0491 H   0  0  0  0  0  0
    1.7515   -0.1680   -2.1625 H   0  0  0  0  0  0
    4.2246   -0.1649   -2.1367 H   0  0  0  0  0  0
    5.4340   -0.0503    0.0431 H   0  0  0  0  0  0
    4.1438    0.0456    2.1517 H   0  0  0  0  0  0
    2.0987    0.5292    3.2766 H   0  0  0  0  0  0
    0.5445    0.5341    2.4722 H   0  0  0  0  0  0
    0.7178   -1.4315    4.0064 H   0  0  0  0  0  0
    2.1776   -1.9803    3.1594 H   0  0  0  0  0  0
    0.6205   -2.0005    2.3294 H   0  0  0  0  0  0
  1  2  1  0  0  0
  1 12  1  0  0  0
  1 13  1  0  0  0
  1 14  1  0  0  0
  2  3  1  0  0  0
  2 15  1  0  0  0
  2 16  1  0  0  0
  3  4  1  0  0  0
  3 17  1  0  0  0
  3 18  1  0  0  0
  4  9  1  0  0  0
  4  5  2  0  0  0
  5  6  1  0  0  0
  5 19  1  0  0  0
  6  7  2  0  0  0
  6 20  1  0  0  0
  7  8  1  0  0  0
  7 21  1  0  0  0
  8  9  2  0  0  0
  8 22  1  0  0  0
  9 10  1  0  0  0
 10 11  1  0  0  0
 10 23  1  0  0  0
 10 24  1  0  0  0
 11 25  1  0  0  0
 11 26  1  0  0  0
 11 27  1  0  0  0
M  END
>  <i_m_Spin_multiplicity> (1)
1

>  <s_j_Task> (1)
Single Point

>  <s_j_QM_Method> (1)
DFT(b3lyp-d3)

>  <s_j_QM_Basis> (1)
cc-pvtz(-f)

>  <i_j_Number_of_canonical_orbitals> (1)
389

>  <i_j_Geometry_convergence_category> (1)
3

>  <r_j_Gas_Phase_Energy> (1)
-428.982314711901

>  <r_j_Final_Energy> (1)
-428.982314711901

>  <r_j_HOMO> (1)
-0.240072284131521

>  <r_j_LUMO> (1)
-0.0116816034230505

>  <r_j_Polarizability> (1)
126.107270434053

>  <r_j_QM_Dipole_(debye)> (1)
0.569526707612915

>  <r_j_QM_Dipole_X_(debye)> (1)
-0.469536993201354

>  <r_j_QM_Dipole_Y_(debye)> (1)
0.0452422645850665

>  <r_j_QM_Dipole_Z_(debye)> (1)
0.319137619523386

>  <r_j_Lowest_Frequency_(cm-1)> (1)
92.9598470733243

>  <r_j_Highest_Frequency_(cm-1)> (1)
3142.76706492128

>  <r_j_2nd_Lowest_Frequency_(cm-1)> (1)
103.578251671104

>  <i_j_Num_Negative_Frequencies> (1)
0

>  <r_j_Zero_Point_Energy_(kcal/mol)> (1)
151.46423618041

>  <r_j_Entropy_(cal/mol/K)_298.15K_1.00E+00atm> (1)
100.086083961226

>  <r_j_Enthalpy_(kcal/mol)_298.15K_1.00E+00atm> (1)
7.33500179449002

>  <r_j_Free_Energy_(kcal/mol)_298.15K_1.00E+00atm> (1)
-22.5056641385495

>  <r_j_Internal_Energy_(kcal/mol)_298.15K_1.00E+00atm> (1)
6.74251620566274

>  <r_j_Heat_Capacity_(cal/mol/K)_298.15K_1.00E+00atm> (1)
42.4912142519907

>  <r_j_ln(Q)_298.15K_1.00E+00atm> (1)
37.9851671719066

>  <r_j_Total_Internal_Energy_(au)_298.15K_1.00E+00atm> (1)
-428.730196202221

>  <r_j_Total_Enthalpy_(au)_298.15K_1.00E+00atm> (1)
-428.729252016329

>  <r_j_Total_Free_Energy_(au)_298.15K_1.00E+00atm> (1)
-428.776806144768

>  <r_lp_tautomer_probability> (1)
1

>  <r_epik_Ionization_Penalty> (1)
  0.0000

>  <r_epik_Ionization_Penalty_Charging> (1)
  0.0000

>  <r_epik_Ionization_Penalty_Neutral> (1)
  0.0000

>  <r_epik_State_Penalty> (1)
  0.0000

>  <r_epik_Charging_Adjusted_Penalty> (1)
0

>  <i_epik_Tot_Q> (1)
0

>  <i_epik_Tot_abs_Q> (1)
0

>  <s_lp_Force_Field> (1)
S-OPLS

>  <r_lp_Energy> (1)
12.2476

>  <b_lp_Chiralities_Consistent> (1)
1

$$$$
