519391_6-methylundecane
                    3D
 Schrodinger Suite 2021-3.
 38 37  0  0  1  0            999 V2000
   -4.2899    2.7835    0.3051 C   0  0  0  0  0  0
   -2.7649    2.8490    0.1797 C   0  0  0  0  0  0
   -2.1142    1.4693    0.0239 C   0  0  0  0  0  0
   -0.5874    1.5295   -0.1035 C   0  0  0  0  0  0
    0.0578    0.1480   -0.2697 C   0  0  0  0  0  0
    1.5994    0.1403   -0.2878 C   0  0  0  0  0  0
    2.1583    0.9311   -1.4808 C   0  0  0  0  0  0
    2.1203   -1.3106   -0.2703 C   0  0  0  0  0  0
    3.6377   -1.4585   -0.1032 C   0  0  0  0  0  0
    4.0899   -2.9180    0.0235 C   0  0  0  0  0  0
    5.6074   -3.0713    0.1803 C   0  0  0  0  0  0
    6.0543   -4.5309    0.3049 C   0  0  0  0  0  0
   -4.7284    3.7807    0.4157 H   0  0  0  0  0  0
   -4.5886    2.1891    1.1762 H   0  0  0  0  0  0
   -4.7383    2.3181   -0.5802 H   0  0  0  0  0  0
   -2.4930    3.4754   -0.6809 H   0  0  0  0  0  0
   -2.3438    3.3487    1.0628 H   0  0  0  0  0  0
   -2.3856    0.8405    0.8840 H   0  0  0  0  0  0
   -2.5338    0.9681   -0.8604 H   0  0  0  0  0  0
   -0.3301    2.1721   -0.9549 H   0  0  0  0  0  0
   -0.1681    2.0208    0.7865 H   0  0  0  0  0  0
   -0.2860   -0.4981    0.5503 H   0  0  0  0  0  0
   -0.3124   -0.3173   -1.1955 H   0  0  0  0  0  0
    1.9453    0.6290    0.6369 H   0  0  0  0  0  0
    1.8364    0.4770   -2.4267 H   0  0  0  0  0  0
    3.2517    0.9529   -1.4763 H   0  0  0  0  0  0
    1.8151    1.9694   -1.4755 H   0  0  0  0  0  0
    1.6251   -1.8506    0.5490 H   0  0  0  0  0  0
    1.8055   -1.8141   -1.1967 H   0  0  0  0  0  0
    4.1583   -1.0011   -0.9539 H   0  0  0  0  0  0
    3.9605   -0.9000    0.7874 H   0  0  0  0  0  0
    3.5869   -3.3842    0.8829 H   0  0  0  0  0  0
    3.7580   -3.4801   -0.8614 H   0  0  0  0  0  0
    6.1079   -2.6054   -0.6795 H   0  0  0  0  0  0
    5.9374   -2.5084    1.0642 H   0  0  0  0  0  0
    7.1406   -4.6117    0.4163 H   0  0  0  0  0  0
    5.7658   -5.1081   -0.5812 H   0  0  0  0  0  0
    5.5928   -5.0115    1.1752 H   0  0  0  0  0  0
  1  2  1  0  0  0
  1 13  1  0  0  0
  1 14  1  0  0  0
  1 15  1  0  0  0
  2  3  1  0  0  0
  2 16  1  0  0  0
  2 17  1  0  0  0
  3  4  1  0  0  0
  3 18  1  0  0  0
  3 19  1  0  0  0
  4  5  1  0  0  0
  4 20  1  0  0  0
  4 21  1  0  0  0
  5  6  1  0  0  0
  5 22  1  0  0  0
  5 23  1  0  0  0
  6  7  1  0  0  0
  6  8  1  0  0  0
  6 24  1  0  0  0
  7 25  1  0  0  0
  7 26  1  0  0  0
  7 27  1  0  0  0
  8  9  1  0  0  0
  8 28  1  0  0  0
  8 29  1  0  0  0
  9 10  1  0  0  0
  9 30  1  0  0  0
  9 31  1  0  0  0
 10 11  1  0  0  0
 10 32  1  0  0  0
 10 33  1  0  0  0
 11 12  1  0  0  0
 11 34  1  0  0  0
 11 35  1  0  0  0
 12 36  1  0  0  0
 12 37  1  0  0  0
 12 38  1  0  0  0
M  END
>  <i_m_Spin_multiplicity> (1)
1

>  <s_j_Task> (1)
Single Point

>  <s_j_QM_Method> (1)
DFT(b3lyp-d3)

>  <s_j_QM_Basis> (1)
cc-pvtz(-f)

>  <i_j_Number_of_canonical_orbitals> (1)
507

>  <i_j_Geometry_convergence_category> (1)
0

>  <r_j_Gas_Phase_Energy> (1)
-473.158418536172

>  <r_j_Final_Energy> (1)
-473.158418536172

>  <r_j_HOMO> (1)
-0.291711969415614

>  <r_j_LUMO> (1)
0.0174517149315045

>  <r_j_Polarizability> (1)
150.112021545147

>  <r_j_QM_Dipole_(debye)> (1)
0.134074982173352

>  <r_j_QM_Dipole_X_(debye)> (1)
0.0687317776917553

>  <r_j_QM_Dipole_Y_(debye)> (1)
0.0968950636290093

>  <r_j_QM_Dipole_Z_(debye)> (1)
0.0621561760764443

>  <r_j_Lowest_Frequency_(cm-1)> (1)
53.8121712608735

>  <r_j_Highest_Frequency_(cm-1)> (1)
3061.05811292211

>  <r_j_2nd_Lowest_Frequency_(cm-1)> (1)
75.4121985776692

>  <i_j_Num_Negative_Frequencies> (1)
0

>  <r_j_Zero_Point_Energy_(kcal/mol)> (1)
225.340038497925

>  <r_j_Entropy_(cal/mol/K)_298.15K_1.00E+00atm> (1)
120.675971602222

>  <r_j_Enthalpy_(kcal/mol)_298.15K_1.00E+00atm> (1)
10.158403639917

>  <r_j_Free_Energy_(kcal/mol)_298.15K_1.00E+00atm> (1)
-25.8211372932856

>  <r_j_Internal_Energy_(kcal/mol)_298.15K_1.00E+00atm> (1)
9.56591805108972

>  <r_j_Heat_Capacity_(cal/mol/K)_298.15K_1.00E+00atm> (1)
57.7393529806406

>  <r_j_ln(Q)_298.15K_1.00E+00atm> (1)
43.5810385606074

>  <r_j_Total_Internal_Energy_(au)_298.15K_1.00E+00atm> (1)
-472.784072063682

>  <r_j_Total_Enthalpy_(au)_298.15K_1.00E+00atm> (1)
-472.783127877789

>  <r_j_Total_Free_Energy_(au)_298.15K_1.00E+00atm> (1)
-472.840464926317

>  <r_lp_tautomer_probability> (1)
1

>  <r_epik_Ionization_Penalty> (1)
  0.0000

>  <r_epik_Ionization_Penalty_Charging> (1)
  0.0000

>  <r_epik_Ionization_Penalty_Neutral> (1)
  0.0000

>  <r_epik_State_Penalty> (1)
  0.0000

>  <r_epik_Charging_Adjusted_Penalty> (1)
0

>  <i_epik_Tot_Q> (1)
0

>  <i_epik_Tot_abs_Q> (1)
0

>  <s_lp_Force_Field> (1)
S-OPLS

>  <r_lp_Energy> (1)
6.36054

>  <b_lp_Chiralities_Consistent> (1)
1

$$$$
