519365_1,3-dipropylbenzene
                    3D
 Schrodinger Suite 2021-3.
 30 30  0  0  1  0            999 V2000
   -2.1898    1.3518    0.0885 C   0  0  0  0  0  0
   -0.6618    1.3534    0.0017 C   0  0  0  0  0  0
   -0.0540   -0.0564    0.1429 C   0  0  0  0  0  0
    1.4557   -0.0394    0.0608 C   0  0  0  0  0  0
    2.1061   -0.1305   -1.1752 C   0  0  0  0  0  0
    3.4990   -0.0551   -1.2856 C   0  0  0  0  0  0
    4.2522    0.1132   -0.1176 C   0  0  0  0  0  0
    3.6231    0.2039    1.1231 C   0  0  0  0  0  0
    2.2338    0.1289    1.2126 C   0  0  0  0  0  0
    4.1704   -0.0883   -2.6399 C   0  0  0  0  0  0
    4.3094    1.3179   -3.2564 C   0  0  0  0  0  0
    4.9941    1.3003   -4.6250 C   0  0  0  0  0  0
   -2.5982    2.3620   -0.0180 H   0  0  0  0  0  0
   -2.5299    0.9538    1.0515 H   0  0  0  0  0  0
   -2.6295    0.7288   -0.6990 H   0  0  0  0  0  0
   -0.3385    1.7831   -0.9549 H   0  0  0  0  0  0
   -0.2405    1.9996    0.7823 H   0  0  0  0  0  0
   -0.3719   -0.4881    1.1005 H   0  0  0  0  0  0
   -0.4653   -0.7031   -0.6427 H   0  0  0  0  0  0
    1.5106   -0.2639   -2.0771 H   0  0  0  0  0  0
    5.3361    0.1701   -0.1831 H   0  0  0  0  0  0
    4.2178    0.3272    2.0241 H   0  0  0  0  0  0
    1.7467    0.1981    2.1824 H   0  0  0  0  0  0
    5.1669   -0.5399   -2.5527 H   0  0  0  0  0  0
    3.5985   -0.7248   -3.3270 H   0  0  0  0  0  0
    3.3117    1.7674   -3.3392 H   0  0  0  0  0  0
    4.8720    1.9544   -2.5617 H   0  0  0  0  0  0
    5.0780    2.3083   -5.0440 H   0  0  0  0  0  0
    4.4330    0.6870   -5.3396 H   0  0  0  0  0  0
    6.0050    0.8824   -4.5550 H   0  0  0  0  0  0
  1  2  1  0  0  0
  1 13  1  0  0  0
  1 14  1  0  0  0
  1 15  1  0  0  0
  2  3  1  0  0  0
  2 16  1  0  0  0
  2 17  1  0  0  0
  3  4  1  0  0  0
  3 18  1  0  0  0
  3 19  1  0  0  0
  4  9  1  0  0  0
  4  5  2  0  0  0
  5  6  1  0  0  0
  5 20  1  0  0  0
  6  7  2  0  0  0
  6 10  1  0  0  0
  7  8  1  0  0  0
  7 21  1  0  0  0
  8  9  2  0  0  0
  8 22  1  0  0  0
  9 23  1  0  0  0
 10 11  1  0  0  0
 10 24  1  0  0  0
 10 25  1  0  0  0
 11 12  1  0  0  0
 11 26  1  0  0  0
 11 27  1  0  0  0
 12 28  1  0  0  0
 12 29  1  0  0  0
 12 30  1  0  0  0
M  END
>  <i_m_Spin_multiplicity> (1)
1

>  <s_j_Task> (1)
Single Point

>  <s_j_QM_Method> (1)
DFT(b3lyp-d3)

>  <s_j_QM_Basis> (1)
cc-pvtz(-f)

>  <i_j_Number_of_canonical_orbitals> (1)
430

>  <i_j_Geometry_convergence_category> (1)
3

>  <r_j_Gas_Phase_Energy> (1)
-468.314139923926

>  <r_j_Final_Energy> (1)
-468.314139923926

>  <r_j_HOMO> (1)
-0.234084021113337

>  <r_j_LUMO> (1)
-0.00530257151913552

>  <r_j_Polarizability> (1)
142.021746935288

>  <r_j_QM_Dipole_(debye)> (1)
0.414132644882388

>  <r_j_QM_Dipole_X_(debye)> (1)
-0.182519307900263

>  <r_j_QM_Dipole_Y_(debye)> (1)
0.243273664450075

>  <r_j_QM_Dipole_Z_(debye)> (1)
-0.281088018218357

>  <r_j_Lowest_Frequency_(cm-1)> (1)
52.4578660229366

>  <r_j_Highest_Frequency_(cm-1)> (1)
3136.1793075361

>  <r_j_2nd_Lowest_Frequency_(cm-1)> (1)
92.0313774323081

>  <i_j_Num_Negative_Frequencies> (1)
0

>  <r_j_Zero_Point_Energy_(kcal/mol)> (1)
168.961842120566

>  <r_j_Entropy_(cal/mol/K)_298.15K_1.00E+00atm> (1)
107.383414916886

>  <r_j_Enthalpy_(kcal/mol)_298.15K_1.00E+00atm> (1)
8.22763261628014

>  <r_j_Free_Energy_(kcal/mol)_298.15K_1.00E+00atm> (1)
-23.7887325411893

>  <r_j_Internal_Energy_(kcal/mol)_298.15K_1.00E+00atm> (1)
7.63514702745286

>  <r_j_Heat_Capacity_(cal/mol/K)_298.15K_1.00E+00atm> (1)
47.533908378083

>  <r_j_ln(Q)_298.15K_1.00E+00atm> (1)
40.1507361356672

>  <r_j_Total_Internal_Energy_(au)_298.15K_1.00E+00atm> (1)
-468.032714706314

>  <r_j_Total_Enthalpy_(au)_298.15K_1.00E+00atm> (1)
-468.031770520422

>  <r_j_Total_Free_Energy_(au)_298.15K_1.00E+00atm> (1)
-468.082791846295

>  <r_lp_tautomer_probability> (1)
1

>  <r_epik_Ionization_Penalty> (1)
  0.0000

>  <r_epik_Ionization_Penalty_Charging> (1)
  0.0000

>  <r_epik_Ionization_Penalty_Neutral> (1)
  0.0000

>  <r_epik_State_Penalty> (1)
  0.0000

>  <r_epik_Charging_Adjusted_Penalty> (1)
0

>  <i_epik_Tot_Q> (1)
0

>  <i_epik_Tot_abs_Q> (1)
0

>  <s_lp_Force_Field> (1)
S-OPLS

>  <r_lp_Energy> (1)
11.28141

>  <b_lp_Chiralities_Consistent> (1)
1

$$$$
