519394_2,5-dimethyl decane
                    3D
 Schrodinger Suite 2021-3.
 38 37  0  0  1  0            999 V2000
   -4.1942    3.1364    0.0970 C   0  0  0  0  0  0
   -2.6668    3.0619    0.0140 C   0  0  0  0  0  0
   -2.1345    1.6244   -0.0174 C   0  0  0  0  0  0
   -0.6053    1.5463   -0.0951 C   0  0  0  0  0  0
   -0.0769    0.1069   -0.1471 C   0  0  0  0  0  0
    1.4571   -0.0267   -0.0753 C   0  0  0  0  0  0
    2.1518    0.7205   -1.2241 C   0  0  0  0  0  0
    1.9051   -1.5023   -0.0676 C   0  0  0  0  0  0
    1.4089   -2.3294    1.1268 C   0  0  0  0  0  0
    2.0980   -3.6983    1.2855 C   0  0  0  0  0  0
    1.8697   -4.6085    0.0698 C   0  0  0  0  0  0
    1.6268   -4.3913    2.5714 C   0  0  0  0  0  0
   -4.5468    4.1729    0.1174 H   0  0  0  0  0  0
   -4.5645    2.6402    1.0016 H   0  0  0  0  0  0
   -4.6603    2.6422   -0.7633 H   0  0  0  0  0  0
   -2.3206    3.5943   -0.8825 H   0  0  0  0  0  0
   -2.2253    3.5913    0.8695 H   0  0  0  0  0  0
   -2.4838    1.0879    0.8766 H   0  0  0  0  0  0
   -2.5707    1.0946   -0.8768 H   0  0  0  0  0  0
   -0.2680    2.1048   -0.9773 H   0  0  0  0  0  0
   -0.1716    2.0605    0.7750 H   0  0  0  0  0  0
   -0.5248   -0.4529    0.6834 H   0  0  0  0  0  0
   -0.4329   -0.3791   -1.0682 H   0  0  0  0  0  0
    1.7867    0.4268    0.8730 H   0  0  0  0  0  0
    1.8112    0.3393   -2.1951 H   0  0  0  0  0  0
    3.2382    0.5878   -1.1782 H   0  0  0  0  0  0
    1.9501    1.7951   -1.1988 H   0  0  0  0  0  0
    1.5830   -1.9692   -1.0085 H   0  0  0  0  0  0
    3.0040   -1.5292   -0.0777 H   0  0  0  0  0  0
    1.5659   -1.7501    2.0480 H   0  0  0  0  0  0
    0.3254   -2.4937    1.0518 H   0  0  0  0  0  0
    3.1803   -3.5179    1.3747 H   0  0  0  0  0  0
    0.7973   -4.7796   -0.0878 H   0  0  0  0  0  0
    2.3437   -5.5852    0.2163 H   0  0  0  0  0  0
    2.2776   -4.1769   -0.8490 H   0  0  0  0  0  0
    0.5498   -4.5969    2.5296 H   0  0  0  0  0  0
    1.8123   -3.7678    3.4530 H   0  0  0  0  0  0
    2.1410   -5.3470    2.7205 H   0  0  0  0  0  0
  1  2  1  0  0  0
  1 13  1  0  0  0
  1 14  1  0  0  0
  1 15  1  0  0  0
  2  3  1  0  0  0
  2 16  1  0  0  0
  2 17  1  0  0  0
  3  4  1  0  0  0
  3 18  1  0  0  0
  3 19  1  0  0  0
  4  5  1  0  0  0
  4 20  1  0  0  0
  4 21  1  0  0  0
  5  6  1  0  0  0
  5 22  1  0  0  0
  5 23  1  0  0  0
  6  7  1  0  0  0
  6  8  1  0  0  0
  6 24  1  0  0  0
  7 25  1  0  0  0
  7 26  1  0  0  0
  7 27  1  0  0  0
  8  9  1  0  0  0
  8 28  1  0  0  0
  8 29  1  0  0  0
  9 10  1  0  0  0
  9 30  1  0  0  0
  9 31  1  0  0  0
 10 11  1  0  0  0
 10 12  1  0  0  0
 10 32  1  0  0  0
 11 33  1  0  0  0
 11 34  1  0  0  0
 11 35  1  0  0  0
 12 36  1  0  0  0
 12 37  1  0  0  0
 12 38  1  0  0  0
M  END
>  <i_m_Spin_multiplicity> (1)
1

>  <s_j_Task> (1)
Single Point

>  <s_j_QM_Method> (1)
DFT(b3lyp-d3)

>  <s_j_QM_Basis> (1)
cc-pvtz(-f)

>  <i_j_Number_of_canonical_orbitals> (1)
507

>  <i_j_Geometry_convergence_category> (1)
3

>  <r_j_Gas_Phase_Energy> (1)
-473.159225250663

>  <r_j_Final_Energy> (1)
-473.159225250663

>  <r_j_HOMO> (1)
-0.296355216875142

>  <r_j_LUMO> (1)
0.00709327879301174

>  <r_j_Polarizability> (1)
148.845376260049

>  <r_j_QM_Dipole_(debye)> (1)
0.164212896926137

>  <r_j_QM_Dipole_X_(debye)> (1)
0.127887941262236

>  <r_j_QM_Dipole_Y_(debye)> (1)
0.0818640504795331

>  <r_j_QM_Dipole_Z_(debye)> (1)
0.0625206144856669

>  <r_j_Lowest_Frequency_(cm-1)> (1)
59.3087078869009

>  <r_j_Highest_Frequency_(cm-1)> (1)
3056.72918006743

>  <r_j_2nd_Lowest_Frequency_(cm-1)> (1)
72.8432850533003

>  <i_j_Num_Negative_Frequencies> (1)
0

>  <r_j_Zero_Point_Energy_(kcal/mol)> (1)
225.207225358202

>  <r_j_Entropy_(cal/mol/K)_298.15K_1.00E+00atm> (1)
119.711480930623

>  <r_j_Enthalpy_(kcal/mol)_298.15K_1.00E+00atm> (1)
10.0685006235267

>  <r_j_Free_Energy_(kcal/mol)_298.15K_1.00E+00atm> (1)
-25.6234774159387

>  <r_j_Internal_Energy_(kcal/mol)_298.15K_1.00E+00atm> (1)
9.47601503469943

>  <r_j_Heat_Capacity_(cal/mol/K)_298.15K_1.00E+00atm> (1)
58.1506639379638

>  <r_j_ln(Q)_298.15K_1.00E+00atm> (1)
43.2474272777774

>  <r_j_Total_Internal_Energy_(au)_298.15K_1.00E+00atm> (1)
-472.785233698962

>  <r_j_Total_Enthalpy_(au)_298.15K_1.00E+00atm> (1)
-472.784289513069

>  <r_j_Total_Free_Energy_(au)_298.15K_1.00E+00atm> (1)
-472.841168300954

>  <r_lp_tautomer_probability> (1)
1

>  <r_epik_Ionization_Penalty> (1)
  0.0000

>  <r_epik_Ionization_Penalty_Charging> (1)
  0.0000

>  <r_epik_Ionization_Penalty_Neutral> (1)
  0.0000

>  <r_epik_State_Penalty> (1)
  0.0000

>  <r_epik_Charging_Adjusted_Penalty> (1)
0

>  <i_epik_Tot_Q> (1)
0

>  <i_epik_Tot_abs_Q> (1)
0

>  <s_lp_Force_Field> (1)
S-OPLS

>  <r_lp_Energy> (1)
6.55898

>  <b_lp_Chiralities_Consistent> (1)
1

$$$$
