519308_Cyclohexane, 1,3-diethyl, cis
                    3D
 Schrodinger Suite 2021-3.
 30 30  0  0  1  0            999 V2000
   -0.6952    1.3726   -0.1368 C   0  0  0  0  0  0
   -0.0553   -0.0170   -0.0429 C   0  0  0  0  0  0
    1.4825   -0.0171    0.0183 C   0  0  0  0  0  0
    2.0364   -1.4496   -0.0802 C   0  0  0  0  0  0
    3.5689   -1.4794   -0.0182 C   0  0  0  0  0  0
    4.0863   -0.7833    1.2472 C   0  0  0  0  0  0
    3.5643    0.6595    1.3674 C   0  0  0  0  0  0
    2.0260    0.6768    1.2822 C   0  0  0  0  0  0
    4.0945    1.3304    2.6471 C   0  0  0  0  0  0
    3.7797    2.8255    2.7676 C   0  0  0  0  0  0
   -1.7809    1.2983   -0.2581 H   0  0  0  0  0  0
   -0.3019    1.9286   -0.9959 H   0  0  0  0  0  0
   -0.5069    1.9718    0.7595 H   0  0  0  0  0  0
   -0.4458   -0.5437    0.8396 H   0  0  0  0  0  0
   -0.3680   -0.6113   -0.9121 H   0  0  0  0  0  0
    1.8536    0.5440   -0.8552 H   0  0  0  0  0  0
    1.6285   -2.0437    0.7515 H   0  0  0  0  0  0
    1.6825   -1.9240   -1.0043 H   0  0  0  0  0  0
    3.9320   -2.5134   -0.0598 H   0  0  0  0  0  0
    3.9760   -0.9695   -0.9029 H   0  0  0  0  0  0
    3.7606   -1.3513    2.1318 H   0  0  0  0  0  0
    5.1836   -0.7857    1.2626 H   0  0  0  0  0  0
    3.9518    1.2267    0.5050 H   0  0  0  0  0  0
    1.6649    1.7094    1.3215 H   0  0  0  0  0  0
    1.6162    0.1685    2.1696 H   0  0  0  0  0  0
    3.6915    0.7975    3.5203 H   0  0  0  0  0  0
    5.1835    1.1926    2.6856 H   0  0  0  0  0  0
    4.2521    3.2566    3.6563 H   0  0  0  0  0  0
    2.7042    3.0127    2.8461 H   0  0  0  0  0  0
    4.1490    3.3761    1.8945 H   0  0  0  0  0  0
  1  2  1  0  0  0
  1 11  1  0  0  0
  1 12  1  0  0  0
  1 13  1  0  0  0
  2  3  1  0  0  0
  2 14  1  0  0  0
  2 15  1  0  0  0
  3  8  1  0  0  0
  3  4  1  0  0  0
  3 16  1  0  0  0
  4  5  1  0  0  0
  4 17  1  0  0  0
  4 18  1  0  0  0
  5  6  1  0  0  0
  5 19  1  0  0  0
  5 20  1  0  0  0
  6  7  1  0  0  0
  6 21  1  0  0  0
  6 22  1  0  0  0
  7  8  1  0  0  0
  7  9  1  0  0  0
  7 23  1  0  0  0
  8 24  1  0  0  0
  8 25  1  0  0  0
  9 10  1  0  0  0
  9 26  1  0  0  0
  9 27  1  0  0  0
 10 28  1  0  0  0
 10 29  1  0  0  0
 10 30  1  0  0  0
M  END
>  <i_m_Spin_multiplicity> (1)
1

>  <s_j_Task> (1)
Single Point

>  <s_j_QM_Method> (1)
DFT(b3lyp-d3)

>  <s_j_QM_Basis> (1)
cc-pvtz(-f)

>  <i_j_Number_of_canonical_orbitals> (1)
406

>  <i_j_Geometry_convergence_category> (1)
3

>  <r_j_Gas_Phase_Energy> (1)
-393.292822464881

>  <r_j_Final_Energy> (1)
-393.292822464881

>  <r_j_HOMO> (1)
-0.293160362694436

>  <r_j_LUMO> (1)
0.0283122505793834

>  <r_j_Polarizability> (1)
117.838440134622

>  <r_j_QM_Dipole_(debye)> (1)
0.100298949574411

>  <r_j_QM_Dipole_X_(debye)> (1)
0.0582970868245771

>  <r_j_QM_Dipole_Y_(debye)> (1)
-0.0295603441421559

>  <r_j_QM_Dipole_Z_(debye)> (1)
-0.0760757189101446

>  <r_j_Lowest_Frequency_(cm-1)> (1)
114.661877643764

>  <r_j_Highest_Frequency_(cm-1)> (1)
3053.85241148804

>  <r_j_2nd_Lowest_Frequency_(cm-1)> (1)
117.617237162696

>  <i_j_Num_Negative_Frequencies> (1)
0

>  <r_j_Zero_Point_Energy_(kcal/mol)> (1)
177.20359413764

>  <r_j_Entropy_(cal/mol/K)_298.15K_1.00E+00atm> (1)
98.8368397931637

>  <r_j_Enthalpy_(kcal/mol)_298.15K_1.00E+00atm> (1)
7.31384065300154

>  <r_j_Free_Energy_(kcal/mol)_298.15K_1.00E+00atm> (1)
-22.1543631313302

>  <r_j_Internal_Energy_(kcal/mol)_298.15K_1.00E+00atm> (1)
6.72135506417427

>  <r_j_Heat_Capacity_(cal/mol/K)_298.15K_1.00E+00atm> (1)
42.9909468489195

>  <r_j_ln(Q)_298.15K_1.00E+00atm> (1)
37.3922396579823

>  <r_j_Total_Internal_Energy_(au)_298.15K_1.00E+00atm> (1)
-392.999719399517

>  <r_j_Total_Enthalpy_(au)_298.15K_1.00E+00atm> (1)
-392.998775213625

>  <r_j_Total_Free_Energy_(au)_298.15K_1.00E+00atm> (1)
-393.045735785844

>  <r_lp_tautomer_probability> (1)
1

>  <r_epik_Ionization_Penalty> (1)
  0.0000

>  <r_epik_Ionization_Penalty_Charging> (1)
  0.0000

>  <r_epik_Ionization_Penalty_Neutral> (1)
  0.0000

>  <r_epik_State_Penalty> (1)
  0.0000

>  <r_epik_Charging_Adjusted_Penalty> (1)
0

>  <i_epik_Tot_Q> (1)
0

>  <i_epik_Tot_abs_Q> (1)
0

>  <s_lp_Force_Field> (1)
S-OPLS

>  <r_lp_Energy> (1)
10.603645

>  <b_lp_Chiralities_Consistent> (1)
1

$$$$
