519358_1,3-dimethyl-2-propyl benzene
                    3D
 Schrodinger Suite 2021-3.
 27 27  0  0  1  0            999 V2000
   -2.0903    1.4839   -0.0061 C   0  0  0  0  0  0
   -0.5604    1.4427   -0.0004 C   0  0  0  0  0  0
   -0.0037    0.0035    0.0025 C   0  0  0  0  0  0
    1.5119   -0.0330    0.0017 C   0  0  0  0  0  0
    2.2204   -0.0232   -1.2186 C   0  0  0  0  0  0
    3.6194   -0.0092   -1.2027 C   0  0  0  0  0  0
    4.3213   -0.0032   -0.0012 C   0  0  0  0  0  0
    3.6219   -0.0109    1.2018 C   0  0  0  0  0  0
    2.2229   -0.0250    1.2205 C   0  0  0  0  0  0
    1.5034   -0.0444    2.5520 C   0  0  0  0  0  0
    1.4980   -0.0413   -2.5487 C   0  0  0  0  0  0
   -2.4646    2.5129   -0.0082 H   0  0  0  0  0  0
   -2.5016    0.9804    0.8764 H   0  0  0  0  0  0
   -2.4947    0.9794   -0.8913 H   0  0  0  0  0  0
   -0.1679    1.9778   -0.8737 H   0  0  0  0  0  0
   -0.1741    1.9789    0.8750 H   0  0  0  0  0  0
   -0.3994   -0.5247    0.8768 H   0  0  0  0  0  0
   -0.3999   -0.5284   -0.8693 H   0  0  0  0  0  0
    4.1610   -0.0029   -2.1453 H   0  0  0  0  0  0
    5.4076    0.0093   -0.0023 H   0  0  0  0  0  0
    4.1653   -0.0057    2.1433 H   0  0  0  0  0  0
    2.2117    0.0468    3.3797 H   0  0  0  0  0  0
    0.9465   -0.9780    2.6971 H   0  0  0  0  0  0
    0.7816    0.7739    2.6428 H   0  0  0  0  0  0
    2.2045    0.0520   -3.3777 H   0  0  0  0  0  0
    0.7742    0.7757   -2.6375 H   0  0  0  0  0  0
    0.9427   -0.9759   -2.6939 H   0  0  0  0  0  0
  1  2  1  0  0  0
  1 12  1  0  0  0
  1 13  1  0  0  0
  1 14  1  0  0  0
  2  3  1  0  0  0
  2 15  1  0  0  0
  2 16  1  0  0  0
  3  4  1  0  0  0
  3 17  1  0  0  0
  3 18  1  0  0  0
  4  9  1  0  0  0
  4  5  2  0  0  0
  5  6  1  0  0  0
  5 11  1  0  0  0
  6  7  2  0  0  0
  6 19  1  0  0  0
  7  8  1  0  0  0
  7 20  1  0  0  0
  8  9  2  0  0  0
  8 21  1  0  0  0
  9 10  1  0  0  0
 10 22  1  0  0  0
 10 23  1  0  0  0
 10 24  1  0  0  0
 11 25  1  0  0  0
 11 26  1  0  0  0
 11 27  1  0  0  0
M  END
>  <i_m_Spin_multiplicity> (1)
1

>  <s_j_Task> (1)
Single Point

>  <s_j_QM_Method> (1)
DFT(b3lyp-d3)

>  <s_j_QM_Basis> (1)
cc-pvtz(-f)

>  <i_j_Number_of_canonical_orbitals> (1)
389

>  <i_j_Geometry_convergence_category> (1)
3

>  <r_j_Gas_Phase_Energy> (1)
-428.984913198389

>  <r_j_Final_Energy> (1)
-428.984913198389

>  <r_j_HOMO> (1)
-0.23422562623107

>  <r_j_LUMO> (1)
-0.00669842032597898

>  <r_j_Polarizability> (1)
127.338795424344

>  <r_j_QM_Dipole_(debye)> (1)
0.673652591882171

>  <r_j_QM_Dipole_X_(debye)> (1)
-0.668801559624636

>  <r_j_QM_Dipole_Y_(debye)> (1)
0.0806945882060489

>  <r_j_QM_Dipole_Z_(debye)> (1)
0.000819650826470064

>  <r_j_Lowest_Frequency_(cm-1)> (1)
86.4174378278847

>  <r_j_Highest_Frequency_(cm-1)> (1)
3138.16498520019

>  <r_j_2nd_Lowest_Frequency_(cm-1)> (1)
97.2641792354545

>  <i_j_Num_Negative_Frequencies> (1)
0

>  <r_j_Zero_Point_Energy_(kcal/mol)> (1)
150.836391099747

>  <r_j_Entropy_(cal/mol/K)_298.15K_1.00E+00atm> (1)
100.132936366302

>  <r_j_Enthalpy_(kcal/mol)_298.15K_1.00E+00atm> (1)
7.47445960757454

>  <r_j_Free_Energy_(kcal/mol)_298.15K_1.00E+00atm> (1)
-22.3801753700383

>  <r_j_Internal_Energy_(kcal/mol)_298.15K_1.00E+00atm> (1)
6.88197401874727

>  <r_j_Heat_Capacity_(cal/mol/K)_298.15K_1.00E+00atm> (1)
43.6319251891047

>  <r_j_ln(Q)_298.15K_1.00E+00atm> (1)
37.7733666304628

>  <r_j_Total_Internal_Energy_(au)_298.15K_1.00E+00atm> (1)
-428.733572983367

>  <r_j_Total_Enthalpy_(au)_298.15K_1.00E+00atm> (1)
-428.732628797475

>  <r_j_Total_Free_Energy_(au)_298.15K_1.00E+00atm> (1)
-428.780205187003

>  <r_lp_tautomer_probability> (1)
1

>  <r_epik_Ionization_Penalty> (1)
  0.0000

>  <r_epik_Ionization_Penalty_Charging> (1)
  0.0000

>  <r_epik_Ionization_Penalty_Neutral> (1)
  0.0000

>  <r_epik_State_Penalty> (1)
  0.0000

>  <r_epik_Charging_Adjusted_Penalty> (1)
0

>  <i_epik_Tot_Q> (1)
0

>  <i_epik_Tot_abs_Q> (1)
0

>  <s_lp_Force_Field> (1)
S-OPLS

>  <r_lp_Energy> (1)
9.33079

>  <b_lp_Chiralities_Consistent> (1)
1

$$$$
