519396_3,8-dimethyl decane
                    3D
 Schrodinger Suite 2021-3.
 38 37  0  0  1  0            999 V2000
   -4.3728    0.7757   -1.1528 C   0  0  0  0  0  0
   -2.8441    0.8222   -1.2571 C   0  0  0  0  0  0
   -2.1381    1.4987   -0.0648 C   0  0  0  0  0  0
   -2.5749    2.9627    0.1001 C   0  0  0  0  0  0
   -0.6027    1.4200   -0.1858 C   0  0  0  0  0  0
   -0.0089    0.0060   -0.1535 C   0  0  0  0  0  0
    1.5249    0.0026   -0.1419 C   0  0  0  0  0  0
    2.1175   -1.4127   -0.1353 C   0  0  0  0  0  0
    3.6487   -1.4808    0.0257 C   0  0  0  0  0  0
    4.3764   -0.7451   -1.1102 C   0  0  0  0  0  0
    4.1521   -2.9365    0.1139 C   0  0  0  0  0  0
    3.6449   -3.7286    1.3242 C   0  0  0  0  0  0
   -4.8044    0.1986   -1.9771 H   0  0  0  0  0  0
   -4.8182    1.7746   -1.1849 H   0  0  0  0  0  0
   -4.6878    0.3019   -0.2155 H   0  0  0  0  0  0
   -2.4734   -0.2043   -1.3582 H   0  0  0  0  0  0
   -2.5528    1.3437   -2.1807 H   0  0  0  0  0  0
   -2.4289    0.9532    0.8472 H   0  0  0  0  0  0
   -2.3423    3.5394   -0.8040 H   0  0  0  0  0  0
   -2.0533    3.4362    0.9389 H   0  0  0  0  0  0
   -3.6488    3.0545    0.2869 H   0  0  0  0  0  0
   -0.2914    1.9255   -1.1124 H   0  0  0  0  0  0
   -0.1594    2.0007    0.6354 H   0  0  0  0  0  0
   -0.3812   -0.5237    0.7355 H   0  0  0  0  0  0
   -0.3558   -0.5726   -1.0191 H   0  0  0  0  0  0
    1.8863    0.5609   -1.0148 H   0  0  0  0  0  0
    1.8838    0.5515    0.7409 H   0  0  0  0  0  0
    1.6442   -1.9754    0.6790 H   0  0  0  0  0  0
    1.8356   -1.9294   -1.0654 H   0  0  0  0  0  0
    3.9070   -0.9824    0.9737 H   0  0  0  0  0  0
    4.1135   -1.1801   -2.0828 H   0  0  0  0  0  0
    5.4632   -0.8219   -0.9954 H   0  0  0  0  0  0
    4.1231    0.3184   -1.1419 H   0  0  0  0  0  0
    3.8789   -3.4625   -0.8124 H   0  0  0  0  0  0
    5.2497   -2.9211    0.1385 H   0  0  0  0  0  0
    4.1190   -4.7143    1.3730 H   0  0  0  0  0  0
    2.5630   -3.8890    1.2890 H   0  0  0  0  0  0
    3.8721   -3.2037    2.2597 H   0  0  0  0  0  0
  1  2  1  0  0  0
  1 13  1  0  0  0
  1 14  1  0  0  0
  1 15  1  0  0  0
  2  3  1  0  0  0
  2 16  1  0  0  0
  2 17  1  0  0  0
  3  4  1  0  0  0
  3  5  1  0  0  0
  3 18  1  0  0  0
  4 19  1  0  0  0
  4 20  1  0  0  0
  4 21  1  0  0  0
  5  6  1  0  0  0
  5 22  1  0  0  0
  5 23  1  0  0  0
  6  7  1  0  0  0
  6 24  1  0  0  0
  6 25  1  0  0  0
  7  8  1  0  0  0
  7 26  1  0  0  0
  7 27  1  0  0  0
  8  9  1  0  0  0
  8 28  1  0  0  0
  8 29  1  0  0  0
  9 10  1  0  0  0
  9 11  1  0  0  0
  9 30  1  0  0  0
 10 31  1  0  0  0
 10 32  1  0  0  0
 10 33  1  0  0  0
 11 12  1  0  0  0
 11 34  1  0  0  0
 11 35  1  0  0  0
 12 36  1  0  0  0
 12 37  1  0  0  0
 12 38  1  0  0  0
M  END
>  <i_m_Spin_multiplicity> (1)
1

>  <s_j_Task> (1)
Single Point

>  <s_j_QM_Method> (1)
DFT(b3lyp-d3)

>  <s_j_QM_Basis> (1)
cc-pvtz(-f)

>  <i_j_Number_of_canonical_orbitals> (1)
507

>  <i_j_Geometry_convergence_category> (1)
0

>  <r_j_Gas_Phase_Energy> (1)
-473.157649575588

>  <r_j_Final_Energy> (1)
-473.157649575588

>  <r_j_HOMO> (1)
-0.29416322230537

>  <r_j_LUMO> (1)
0.0184345813267647

>  <r_j_Polarizability> (1)
148.660170128506

>  <r_j_QM_Dipole_(debye)> (1)
0.11423380484476

>  <r_j_QM_Dipole_X_(debye)> (1)
0.0502008953253147

>  <r_j_QM_Dipole_Y_(debye)> (1)
-0.0803684665542301

>  <r_j_QM_Dipole_Z_(debye)> (1)
0.0637976634491354

>  <r_j_Lowest_Frequency_(cm-1)> (1)
56.6241117821997

>  <r_j_Highest_Frequency_(cm-1)> (1)
3059.76786995386

>  <r_j_2nd_Lowest_Frequency_(cm-1)> (1)
66.0088335540706

>  <i_j_Num_Negative_Frequencies> (1)
0

>  <r_j_Zero_Point_Energy_(kcal/mol)> (1)
225.248542956118

>  <r_j_Entropy_(cal/mol/K)_298.15K_1.00E+00atm> (1)
119.414821375918

>  <r_j_Enthalpy_(kcal/mol)_298.15K_1.00E+00atm> (1)
10.0652741179386

>  <r_j_Free_Energy_(kcal/mol)_298.15K_1.00E+00atm> (1)
-25.5382548752914

>  <r_j_Internal_Energy_(kcal/mol)_298.15K_1.00E+00atm> (1)
9.47278852911136

>  <r_j_Heat_Capacity_(cal/mol/K)_298.15K_1.00E+00atm> (1)
58.2222832315218

>  <r_j_ln(Q)_298.15K_1.00E+00atm> (1)
43.1035882675899

>  <r_j_Total_Internal_Energy_(au)_298.15K_1.00E+00atm> (1)
-472.783597321866

>  <r_j_Total_Enthalpy_(au)_298.15K_1.00E+00atm> (1)
-472.782653135974

>  <r_j_Total_Free_Energy_(au)_298.15K_1.00E+00atm> (1)
-472.83939097133

>  <r_lp_tautomer_probability> (1)
1

>  <r_epik_Ionization_Penalty> (1)
  0.0000

>  <r_epik_Ionization_Penalty_Charging> (1)
  0.0000

>  <r_epik_Ionization_Penalty_Neutral> (1)
  0.0000

>  <r_epik_State_Penalty> (1)
  0.0000

>  <r_epik_Charging_Adjusted_Penalty> (1)
0

>  <i_epik_Tot_Q> (1)
0

>  <i_epik_Tot_abs_Q> (1)
0

>  <s_lp_Force_Field> (1)
S-OPLS

>  <r_lp_Energy> (1)
7.5478

>  <b_lp_Chiralities_Consistent> (1)
1

$$$$
