519761_2,2,5-trimethylheptane
                    3D
 Schrodinger Suite 2021-3.
 32 31  0  0  1  0            999 V2000
   -2.2621   -0.7681   -1.2492 C   0  0  0  0  0  0
   -0.7339   -0.6542   -1.2907 C   0  0  0  0  0  0
   -0.1065    0.0461   -0.0685 C   0  0  0  0  0  0
   -0.6146    1.4884    0.0822 C   0  0  0  0  0  0
    1.4363    0.0387   -0.1281 C   0  0  0  0  0  0
    2.0727   -1.3567   -0.0596 C   0  0  0  0  0  0
    3.6208   -1.4135    0.0216 C   0  0  0  0  0  0
    4.2570   -0.7349   -1.2061 C   0  0  0  0  0  0
    4.0394   -2.8966    0.0442 C   0  0  0  0  0  0
    4.1334   -0.7358    1.3063 C   0  0  0  0  0  0
   -2.6337   -1.3594   -2.0924 H   0  0  0  0  0  0
   -2.7494    0.2105   -1.2962 H   0  0  0  0  0  0
   -2.5939   -1.2601   -0.3271 H   0  0  0  0  0  0
   -0.3156   -1.6631   -1.3812 H   0  0  0  0  0  0
   -0.4285   -0.1152   -2.1995 H   0  0  0  0  0  0
   -0.4093   -0.5155    0.8297 H   0  0  0  0  0  0
   -0.3688    2.0798   -0.8089 H   0  0  0  0  0  0
   -0.1517    1.9802    0.9447 H   0  0  0  0  0  0
   -1.6985    1.5314    0.2221 H   0  0  0  0  0  0
    1.7509    0.5526   -1.0468 H   0  0  0  0  0  0
    1.8099    0.6481    0.7039 H   0  0  0  0  0  0
    1.6643   -1.8850    0.8145 H   0  0  0  0  0  0
    1.7665   -1.9412   -0.9363 H   0  0  0  0  0  0
    5.3468   -0.8493   -1.1902 H   0  0  0  0  0  0
    4.0390    0.3373   -1.2353 H   0  0  0  0  0  0
    3.8871   -1.1794   -2.1374 H   0  0  0  0  0  0
    3.7043   -3.4159   -0.8611 H   0  0  0  0  0  0
    3.6067   -3.4156    0.9073 H   0  0  0  0  0  0
    5.1290   -2.9979    0.1043 H   0  0  0  0  0  0
    5.2194   -0.8514    1.3965 H   0  0  0  0  0  0
    3.6743   -1.1813    2.1964 H   0  0  0  0  0  0
    3.9169    0.3369    1.3168 H   0  0  0  0  0  0
  1  2  1  0  0  0
  1 11  1  0  0  0
  1 12  1  0  0  0
  1 13  1  0  0  0
  2  3  1  0  0  0
  2 14  1  0  0  0
  2 15  1  0  0  0
  3  4  1  0  0  0
  3  5  1  0  0  0
  3 16  1  0  0  0
  4 17  1  0  0  0
  4 18  1  0  0  0
  4 19  1  0  0  0
  5  6  1  0  0  0
  5 20  1  0  0  0
  5 21  1  0  0  0
  6  7  1  0  0  0
  6 22  1  0  0  0
  6 23  1  0  0  0
  7  8  1  0  0  0
  7  9  1  0  0  0
  7 10  1  0  0  0
  8 24  1  0  0  0
  8 25  1  0  0  0
  8 26  1  0  0  0
  9 27  1  0  0  0
  9 28  1  0  0  0
  9 29  1  0  0  0
 10 30  1  0  0  0
 10 31  1  0  0  0
 10 32  1  0  0  0
M  END
>  <i_m_Spin_multiplicity> (1)
1

>  <s_j_Task> (1)
Single Point

>  <s_j_QM_Method> (1)
DFT(b3lyp-d3)

>  <s_j_QM_Basis> (1)
cc-pvtz(-f)

>  <i_j_Number_of_canonical_orbitals> (1)
425

>  <i_j_Geometry_convergence_category> (1)
0

>  <r_j_Gas_Phase_Energy> (1)
-394.500870594706

>  <r_j_Final_Energy> (1)
-394.500870594706

>  <r_j_HOMO> (1)
-0.303264516071654

>  <r_j_LUMO> (1)
0.0199331921564146

>  <r_j_Polarizability> (1)
122.990792484227

>  <r_j_QM_Dipole_(debye)> (1)
0.0473550955524207

>  <r_j_QM_Dipole_X_(debye)> (1)
-0.00238950208619824

>  <r_j_QM_Dipole_Y_(debye)> (1)
-0.0446802807506793

>  <r_j_QM_Dipole_Z_(debye)> (1)
0.0155070263622472

>  <r_j_Lowest_Frequency_(cm-1)> (1)
59.3566632228134

>  <r_j_Highest_Frequency_(cm-1)> (1)
3060.35946588635

>  <r_j_2nd_Lowest_Frequency_(cm-1)> (1)
99.4093853812855

>  <i_j_Num_Negative_Frequencies> (1)
0

>  <r_j_Zero_Point_Energy_(kcal/mol)> (1)
189.149298449841

>  <r_j_Entropy_(cal/mol/K)_298.15K_1.00E+00atm> (1)
106.365277650625

>  <r_j_Enthalpy_(kcal/mol)_298.15K_1.00E+00atm> (1)
8.47472643092546

>  <r_j_Free_Energy_(kcal/mol)_298.15K_1.00E+00atm> (1)
-23.2380811006082

>  <r_j_Internal_Energy_(kcal/mol)_298.15K_1.00E+00atm> (1)
7.88224084209818

>  <r_j_Heat_Capacity_(cal/mol/K)_298.15K_1.00E+00atm> (1)
49.4930164738655

>  <r_j_ln(Q)_298.15K_1.00E+00atm> (1)
39.2213440104157

>  <r_j_Total_Internal_Energy_(au)_298.15K_1.00E+00atm> (1)
-394.186880848397

>  <r_j_Total_Enthalpy_(au)_298.15K_1.00E+00atm> (1)
-394.185936662505

>  <r_j_Total_Free_Energy_(au)_298.15K_1.00E+00atm> (1)
-394.236474238506

>  <r_lp_tautomer_probability> (1)
1

>  <r_epik_Ionization_Penalty> (1)
  0.0000

>  <r_epik_Ionization_Penalty_Charging> (1)
  0.0000

>  <r_epik_Ionization_Penalty_Neutral> (1)
  0.0000

>  <r_epik_State_Penalty> (1)
  0.0000

>  <r_epik_Charging_Adjusted_Penalty> (1)
0

>  <i_epik_Tot_Q> (1)
0

>  <i_epik_Tot_abs_Q> (1)
0

>  <s_lp_Force_Field> (1)
S-OPLS

>  <r_lp_Energy> (1)
7.33403

>  <b_lp_Chiralities_Consistent> (1)
1

$$$$
