519965_Dimethyl, isopropyl benzene
                    3D
 Schrodinger Suite 2021-3.
 27 27  0  0  1  0            999 V2000
   -2.9179    2.5232    0.0010 C   0  0  0  0  0  0
   -2.1266    1.2320    0.0065 C   0  0  0  0  0  0
   -0.7149    1.2258    0.0204 C   0  0  0  0  0  0
   -0.0203   -0.0047   -0.0040 C   0  0  0  0  0  0
   -0.7479   -1.2006   -0.0085 C   0  0  0  0  0  0
   -2.1389   -1.1952   -0.0075 C   0  0  0  0  0  0
   -2.8203    0.0171   -0.0065 C   0  0  0  0  0  0
    1.5066   -0.0468    0.0265 C   0  0  0  0  0  0
    2.1105   -1.1851   -0.8129 C   0  0  0  0  0  0
    2.0091   -0.1247    1.4823 C   0  0  0  0  0  0
    0.0551    2.5325    0.0438 C   0  0  0  0  0  0
   -2.6590    3.1574   -0.8542 H   0  0  0  0  0  0
   -2.7420    3.1163    0.9063 H   0  0  0  0  0  0
   -3.9908    2.3198   -0.0533 H   0  0  0  0  0  0
   -0.2233   -2.1505   -0.0163 H   0  0  0  0  0  0
   -2.6891   -2.1321   -0.0132 H   0  0  0  0  0  0
   -3.9073    0.0265   -0.0156 H   0  0  0  0  0  0
    1.8815    0.8875   -0.4048 H   0  0  0  0  0  0
    1.7157   -1.1801   -1.8335 H   0  0  0  0  0  0
    1.9057   -2.1687   -0.3774 H   0  0  0  0  0  0
    3.1991   -1.0771   -0.8650 H   0  0  0  0  0  0
    1.6267    0.7048    2.0855 H   0  0  0  0  0  0
    3.1041   -0.1021    1.5234 H   0  0  0  0  0  0
    1.6695   -1.0555    1.9499 H   0  0  0  0  0  0
    0.8471    2.5239    0.7987 H   0  0  0  0  0  0
   -0.5870    3.3854    0.2643 H   0  0  0  0  0  0
    0.5362    2.7314   -0.9223 H   0  0  0  0  0  0
  1  2  1  0  0  0
  1 12  1  0  0  0
  1 13  1  0  0  0
  1 14  1  0  0  0
  2  7  1  0  0  0
  2  3  2  0  0  0
  3  4  1  0  0  0
  3 11  1  0  0  0
  4  5  2  0  0  0
  4  8  1  0  0  0
  5  6  1  0  0  0
  5 15  1  0  0  0
  6  7  2  0  0  0
  6 16  1  0  0  0
  7 17  1  0  0  0
  8  9  1  0  0  0
  8 10  1  0  0  0
  8 18  1  0  0  0
  9 19  1  0  0  0
  9 20  1  0  0  0
  9 21  1  0  0  0
 10 22  1  0  0  0
 10 23  1  0  0  0
 10 24  1  0  0  0
 11 25  1  0  0  0
 11 26  1  0  0  0
 11 27  1  0  0  0
M  END
>  <i_m_Spin_multiplicity> (1)
1

>  <s_j_Task> (1)
Single Point

>  <s_j_QM_Method> (1)
DFT(b3lyp-d3)

>  <s_j_QM_Basis> (1)
cc-pvtz(-f)

>  <i_j_Number_of_canonical_orbitals> (1)
389

>  <i_j_Geometry_convergence_category> (1)
0

>  <r_j_Gas_Phase_Energy> (1)
-428.982334816877

>  <r_j_Final_Energy> (1)
-428.982334816877

>  <r_j_HOMO> (1)
-0.23328559112463

>  <r_j_LUMO> (1)
-0.00434807925330416

>  <r_j_Polarizability> (1)
127.245815731144

>  <r_j_QM_Dipole_(debye)> (1)
0.718833369032542

>  <r_j_QM_Dipole_X_(debye)> (1)
0.358868781464299

>  <r_j_QM_Dipole_Y_(debye)> (1)
0.622721607704001

>  <r_j_QM_Dipole_Z_(debye)> (1)
-0.012345421157187

>  <r_j_Lowest_Frequency_(cm-1)> (1)
78.67215556278

>  <r_j_Highest_Frequency_(cm-1)> (1)
3146.04190293008

>  <r_j_2nd_Lowest_Frequency_(cm-1)> (1)
114.159277387291

>  <i_j_Num_Negative_Frequencies> (1)
0

>  <r_j_Zero_Point_Energy_(kcal/mol)> (1)
150.55154007853

>  <r_j_Entropy_(cal/mol/K)_298.15K_1.00E+00atm> (1)
99.8042833108984

>  <r_j_Enthalpy_(kcal/mol)_298.15K_1.00E+00atm> (1)
7.52352152726149

>  <r_j_Free_Energy_(kcal/mol)_298.15K_1.00E+00atm> (1)
-22.2331255418829

>  <r_j_Internal_Energy_(kcal/mol)_298.15K_1.00E+00atm> (1)
6.93103593843422

>  <r_j_Heat_Capacity_(cal/mol/K)_298.15K_1.00E+00atm> (1)
44.3071921918294

>  <r_j_ln(Q)_298.15K_1.00E+00atm> (1)
37.5251752298138

>  <r_j_Total_Internal_Energy_(au)_298.15K_1.00E+00atm> (1)
-428.731370355709

>  <r_j_Total_Enthalpy_(au)_298.15K_1.00E+00atm> (1)
-428.730426169816

>  <r_j_Total_Free_Energy_(au)_298.15K_1.00E+00atm> (1)
-428.777846405672

>  <r_lp_tautomer_probability> (1)
1

>  <r_epik_Ionization_Penalty> (1)
  0.0000

>  <r_epik_Ionization_Penalty_Charging> (1)
  0.0000

>  <r_epik_Ionization_Penalty_Neutral> (1)
  0.0000

>  <r_epik_State_Penalty> (1)
  0.0000

>  <r_epik_Charging_Adjusted_Penalty> (1)
0

>  <i_epik_Tot_Q> (1)
0

>  <i_epik_Tot_abs_Q> (1)
0

>  <s_lp_Force_Field> (1)
S-OPLS

>  <r_lp_Energy> (1)
12.5254

>  <b_lp_Chiralities_Consistent> (1)
1

$$$$
