520357_2,4-dimethyl decane
                    3D
 Schrodinger Suite 2021-3.
 38 37  0  0  1  0            999 V2000
   -4.7504    4.3858    0.0081 C   0  0  0  0  0  0
   -4.1614    2.9759    0.1119 C   0  0  0  0  0  0
   -2.6393    2.9449   -0.0715 C   0  0  0  0  0  0
   -2.0439    1.5361    0.0258 C   0  0  0  0  0  0
   -0.5203    1.5012   -0.1427 C   0  0  0  0  0  0
    0.0532    0.0800   -0.0670 C   0  0  0  0  0  0
    1.5910   -0.0069   -0.0584 C   0  0  0  0  0  0
    2.2125    0.6477   -1.3026 C   0  0  0  0  0  0
    2.0838   -1.4650    0.0547 C   0  0  0  0  0  0
    1.5850   -2.2905    1.2576 C   0  0  0  0  0  0
    1.8917   -1.6096    2.5989 C   0  0  0  0  0  0
    2.1946   -3.6996    1.2159 C   0  0  0  0  0  0
   -5.8369    4.3801    0.1446 H   0  0  0  0  0  0
   -4.5394    4.8297   -0.9716 H   0  0  0  0  0  0
   -4.3219    5.0487    0.7688 H   0  0  0  0  0  0
   -4.4159    2.5415    1.0883 H   0  0  0  0  0  0
   -4.6288    2.3254   -0.6400 H   0  0  0  0  0  0
   -2.3821    3.3831   -1.0467 H   0  0  0  0  0  0
   -2.1697    3.5922    0.6834 H   0  0  0  0  0  0
   -2.3122    1.0948    0.9965 H   0  0  0  0  0  0
   -2.5078    0.8928   -0.7360 H   0  0  0  0  0  0
   -0.2576    1.9656   -1.1016 H   0  0  0  0  0  0
   -0.0544    2.1235    0.6353 H   0  0  0  0  0  0
   -0.3373   -0.3957    0.8414 H   0  0  0  0  0  0
   -0.3325   -0.5142   -0.9092 H   0  0  0  0  0  0
    1.9508    0.5475    0.8208 H   0  0  0  0  0  0
    1.8329    0.1778   -2.2187 H   0  0  0  0  0  0
    3.3024    0.5369   -1.3006 H   0  0  0  0  0  0
    1.9902    1.7172   -1.3591 H   0  0  0  0  0  0
    1.8095   -1.9950   -0.8696 H   0  0  0  0  0  0
    3.1836   -1.4560    0.0807 H   0  0  0  0  0  0
    0.4952   -2.4018    1.1750 H   0  0  0  0  0  0
    2.9690   -1.4306    2.7044 H   0  0  0  0  0  0
    1.5750   -2.2368    3.4395 H   0  0  0  0  0  0
    1.3831   -0.6455    2.6959 H   0  0  0  0  0  0
    3.2866   -3.6544    1.3124 H   0  0  0  0  0  0
    1.9652   -4.2067    0.2722 H   0  0  0  0  0  0
    1.8144   -4.3217    2.0335 H   0  0  0  0  0  0
  1  2  1  0  0  0
  1 13  1  0  0  0
  1 14  1  0  0  0
  1 15  1  0  0  0
  2  3  1  0  0  0
  2 16  1  0  0  0
  2 17  1  0  0  0
  3  4  1  0  0  0
  3 18  1  0  0  0
  3 19  1  0  0  0
  4  5  1  0  0  0
  4 20  1  0  0  0
  4 21  1  0  0  0
  5  6  1  0  0  0
  5 22  1  0  0  0
  5 23  1  0  0  0
  6  7  1  0  0  0
  6 24  1  0  0  0
  6 25  1  0  0  0
  7  8  1  0  0  0
  7  9  1  0  0  0
  7 26  1  0  0  0
  8 27  1  0  0  0
  8 28  1  0  0  0
  8 29  1  0  0  0
  9 10  1  0  0  0
  9 30  1  0  0  0
  9 31  1  0  0  0
 10 11  1  0  0  0
 10 12  1  0  0  0
 10 32  1  0  0  0
 11 33  1  0  0  0
 11 34  1  0  0  0
 11 35  1  0  0  0
 12 36  1  0  0  0
 12 37  1  0  0  0
 12 38  1  0  0  0
M  END
>  <i_m_Spin_multiplicity> (1)
1

>  <s_j_Task> (1)
Single Point

>  <s_j_QM_Method> (1)
DFT(b3lyp-d3)

>  <s_j_QM_Basis> (1)
cc-pvtz(-f)

>  <i_j_Number_of_canonical_orbitals> (1)
506

>  <i_j_Geometry_convergence_category> (1)
1

>  <r_j_Gas_Phase_Energy> (1)
-473.159351745775

>  <r_j_Final_Energy> (1)
-473.159351745775

>  <r_j_HOMO> (1)
-0.292064054600062

>  <r_j_LUMO> (1)
0.0141602588562316

>  <r_j_Polarizability> (1)
148.659661176923

>  <r_j_QM_Dipole_(debye)> (1)
0.129909718751764

>  <r_j_QM_Dipole_X_(debye)> (1)
-0.117864324703988

>  <r_j_QM_Dipole_Y_(debye)> (1)
0.00177800915027502

>  <r_j_QM_Dipole_Z_(debye)> (1)
0.0546019658226409

>  <r_j_Lowest_Frequency_(cm-1)> (1)
57.5529419356667

>  <r_j_Highest_Frequency_(cm-1)> (1)
3055.69839505121

>  <r_j_2nd_Lowest_Frequency_(cm-1)> (1)
76.710459847515

>  <i_j_Num_Negative_Frequencies> (1)
0

>  <r_j_Zero_Point_Energy_(kcal/mol)> (1)
225.263091844227

>  <r_j_Entropy_(cal/mol/K)_298.15K_1.00E+00atm> (1)
119.242593005774

>  <r_j_Enthalpy_(kcal/mol)_298.15K_1.00E+00atm> (1)
10.041495633923

>  <r_j_Free_Energy_(kcal/mol)_298.15K_1.00E+00atm> (1)
-25.5106834707485

>  <r_j_Internal_Energy_(kcal/mol)_298.15K_1.00E+00atm> (1)
9.44901004509576

>  <r_j_Heat_Capacity_(cal/mol/K)_298.15K_1.00E+00atm> (1)
58.124960091238

>  <r_j_ln(Q)_298.15K_1.00E+00atm> (1)
43.0570531196254

>  <r_j_Total_Internal_Energy_(au)_298.15K_1.00E+00atm> (1)
-472.785314200351

>  <r_j_Total_Enthalpy_(au)_298.15K_1.00E+00atm> (1)
-472.784370014459

>  <r_j_Total_Free_Energy_(au)_298.15K_1.00E+00atm> (1)
-472.841026018558

>  <r_lp_tautomer_probability> (1)
1

>  <r_epik_Ionization_Penalty> (1)
  0.0000

>  <r_epik_Ionization_Penalty_Charging> (1)
  0.0000

>  <r_epik_Ionization_Penalty_Neutral> (1)
  0.0000

>  <r_epik_State_Penalty> (1)
  0.0000

>  <r_epik_Charging_Adjusted_Penalty> (1)
0

>  <i_epik_Tot_Q> (1)
0

>  <i_epik_Tot_abs_Q> (1)
0

>  <s_lp_Force_Field> (1)
S-OPLS

>  <r_lp_Energy> (1)
6.500113

>  <b_lp_Chiralities_Consistent> (1)
1

$$$$
