520475_p-xylene, 2-propyl-
                    3D
 Schrodinger Suite 2021-3.
 27 27  0  0  1  0            999 V2000
   -2.0860    1.4806   -0.0322 C   0  0  0  0  0  0
   -0.5564    1.4348   -0.0062 C   0  0  0  0  0  0
   -0.0025   -0.0043   -0.0172 C   0  0  0  0  0  0
    1.5105   -0.0405    0.0242 C   0  0  0  0  0  0
    2.2172   -0.0199    1.2423 C   0  0  0  0  0  0
    3.6166    0.0012    1.1993 C   0  0  0  0  0  0
    4.3113    0.0059   -0.0070 C   0  0  0  0  0  0
    3.6218   -0.0124   -1.2240 C   0  0  0  0  0  0
    2.2258   -0.0371   -1.1797 C   0  0  0  0  0  0
    4.3708   -0.0055   -2.5363 C   0  0  0  0  0  0
    1.5016   -0.0360    2.5747 C   0  0  0  0  0  0
   -2.4567    2.5108   -0.0326 H   0  0  0  0  0  0
   -2.5106    0.9728    0.8415 H   0  0  0  0  0  0
   -2.4802    0.9832   -0.9260 H   0  0  0  0  0  0
   -0.1477    1.9733   -0.8703 H   0  0  0  0  0  0
   -0.1815    1.9609    0.8806 H   0  0  0  0  0  0
   -0.4280   -0.5586    0.8278 H   0  0  0  0  0  0
   -0.3572   -0.5102   -0.9240 H   0  0  0  0  0  0
    4.1728    0.0134    2.1337 H   0  0  0  0  0  0
    5.3987    0.0232   -0.0029 H   0  0  0  0  0  0
    1.6687   -0.0539   -2.1148 H   0  0  0  0  0  0
    3.6884   -0.0412   -3.3902 H   0  0  0  0  0  0
    5.0478   -0.8644   -2.6127 H   0  0  0  0  0  0
    4.9856    0.8966   -2.6374 H   0  0  0  0  0  0
    2.2106    0.0543    3.4022 H   0  0  0  0  0  0
    0.9419   -0.9681    2.7204 H   0  0  0  0  0  0
    0.7808    0.7839    2.6647 H   0  0  0  0  0  0
  1  2  1  0  0  0
  1 12  1  0  0  0
  1 13  1  0  0  0
  1 14  1  0  0  0
  2  3  1  0  0  0
  2 15  1  0  0  0
  2 16  1  0  0  0
  3  4  1  0  0  0
  3 17  1  0  0  0
  3 18  1  0  0  0
  4  9  1  0  0  0
  4  5  2  0  0  0
  5  6  1  0  0  0
  5 11  1  0  0  0
  6  7  2  0  0  0
  6 19  1  0  0  0
  7  8  1  0  0  0
  7 20  1  0  0  0
  8  9  2  0  0  0
  8 10  1  0  0  0
  9 21  1  0  0  0
 10 22  1  0  0  0
 10 23  1  0  0  0
 10 24  1  0  0  0
 11 25  1  0  0  0
 11 26  1  0  0  0
 11 27  1  0  0  0
M  END
>  <i_m_Spin_multiplicity> (1)
1

>  <s_j_Task> (1)
Single Point

>  <s_j_QM_Method> (1)
DFT(b3lyp-d3)

>  <s_j_QM_Basis> (1)
cc-pvtz(-f)

>  <i_j_Number_of_canonical_orbitals> (1)
389

>  <i_j_Geometry_convergence_category> (1)
3

>  <r_j_Gas_Phase_Energy> (1)
-428.986335864085

>  <r_j_Final_Energy> (1)
-428.986335864085

>  <r_j_HOMO> (1)
-0.229012424210169

>  <r_j_LUMO> (1)
-0.00741014949774531

>  <r_j_Polarizability> (1)
129.218698507128

>  <r_j_QM_Dipole_(debye)> (1)
0.297990646504706

>  <r_j_QM_Dipole_X_(debye)> (1)
-0.276142913262485

>  <r_j_QM_Dipole_Y_(debye)> (1)
0.111930280133882

>  <r_j_QM_Dipole_Z_(debye)> (1)
-0.0038896334468772

>  <r_j_Lowest_Frequency_(cm-1)> (1)
80.3372392439875

>  <r_j_Highest_Frequency_(cm-1)> (1)
3124.47208459054

>  <r_j_2nd_Lowest_Frequency_(cm-1)> (1)
113.111617406106

>  <i_j_Num_Negative_Frequencies> (1)
0

>  <r_j_Zero_Point_Energy_(kcal/mol)> (1)
150.512395843586

>  <r_j_Entropy_(cal/mol/K)_298.15K_1.00E+00atm> (1)
101.524707391916

>  <r_j_Enthalpy_(kcal/mol)_298.15K_1.00E+00atm> (1)
7.61956711039527

>  <r_j_Free_Energy_(kcal/mol)_298.15K_1.00E+00atm> (1)
-22.6500243985045

>  <r_j_Internal_Energy_(kcal/mol)_298.15K_1.00E+00atm> (1)
7.02708152156799

>  <r_j_Heat_Capacity_(cal/mol/K)_298.15K_1.00E+00atm> (1)
43.9038654725861

>  <r_j_ln(Q)_298.15K_1.00E+00atm> (1)
38.2288191065313

>  <r_j_Total_Internal_Energy_(au)_298.15K_1.00E+00atm> (1)
-428.735280724845

>  <r_j_Total_Enthalpy_(au)_298.15K_1.00E+00atm> (1)
-428.734336538953

>  <r_j_Total_Free_Energy_(au)_298.15K_1.00E+00atm> (1)
-428.782574203811

>  <r_lp_tautomer_probability> (1)
1

>  <r_epik_Ionization_Penalty> (1)
  0.0000

>  <r_epik_Ionization_Penalty_Charging> (1)
  0.0000

>  <r_epik_Ionization_Penalty_Neutral> (1)
  0.0000

>  <r_epik_State_Penalty> (1)
  0.0000

>  <r_epik_Charging_Adjusted_Penalty> (1)
0

>  <i_epik_Tot_Q> (1)
0

>  <i_epik_Tot_abs_Q> (1)
0

>  <s_lp_Force_Field> (1)
S-OPLS

>  <r_lp_Energy> (1)
7.233122

>  <b_lp_Chiralities_Consistent> (1)
1

$$$$
