520743_7-Hexadecene
                    3D
 Schrodinger Suite 2021-3.
 48 47  0  0  1  0            999 V2000
   -6.3197    4.1325    0.0748 C   0  0  0  0  0  0
   -4.7919    4.1559   -0.0296 C   0  0  0  0  0  0
   -4.1618    2.7604    0.0515 C   0  0  0  0  0  0
   -2.6330    2.7770   -0.0548 C   0  0  0  0  0  0
   -1.9963    1.3853    0.0281 C   0  0  0  0  0  0
   -0.4677    1.4131   -0.0768 C   0  0  0  0  0  0
    0.1698    0.0189   -0.0084 C   0  0  0  0  0  0
    1.7044    0.0333   -0.0539 C   0  0  0  0  0  0
    2.4171    0.5602    1.1689 C   0  0  0  0  0  0
    1.8867    0.8475    2.3604 C   0  0  0  0  0  0
    2.6601    1.3264    3.5598 C   0  0  0  0  0  0
    2.6201    0.3346    4.7425 C   0  0  0  0  0  0
    3.3311   -0.9918    4.4437 C   0  0  0  0  0  0
    3.2505   -2.0251    5.5773 C   0  0  0  0  0  0
    3.9748   -1.6160    6.8674 C   0  0  0  0  0  0
    3.9465   -2.7123    7.9369 C   0  0  0  0  0  0
   -6.7436    5.1404    0.0147 H   0  0  0  0  0  0
   -6.6431    3.6905    1.0243 H   0  0  0  0  0  0
   -6.7607    3.5364   -0.7326 H   0  0  0  0  0  0
   -4.4947    4.6315   -0.9743 H   0  0  0  0  0  0
   -4.3778    4.7856    0.7697 H   0  0  0  0  0  0
   -4.4566    2.2835    0.9976 H   0  0  0  0  0  0
   -4.5761    2.1280   -0.7470 H   0  0  0  0  0  0
   -2.3403    3.2537   -1.0014 H   0  0  0  0  0  0
   -2.2203    3.4118    0.7426 H   0  0  0  0  0  0
   -2.2867    0.9088    0.9758 H   0  0  0  0  0  0
   -2.4073    0.7480   -0.7682 H   0  0  0  0  0  0
   -0.1762    1.8916   -1.0227 H   0  0  0  0  0  0
   -0.0588    2.0471    0.7190 H   0  0  0  0  0  0
   -0.1673   -0.5011    0.8984 H   0  0  0  0  0  0
   -0.2000   -0.5811   -0.8500 H   0  0  0  0  0  0
    2.0717   -0.9864   -0.2448 H   0  0  0  0  0  0
    2.0309    0.6170   -0.9278 H   0  0  0  0  0  0
    3.4934    0.6956    1.0452 H   0  0  0  0  0  0
    0.8161    0.7161    2.5208 H   0  0  0  0  0  0
    3.7047    1.5153    3.2794 H   0  0  0  0  0  0
    2.2480    2.2879    3.8975 H   0  0  0  0  0  0
    3.0732    0.8165    5.6171 H   0  0  0  0  0  0
    1.5729    0.1326    5.0113 H   0  0  0  0  0  0
    2.9021   -1.4220    3.5306 H   0  0  0  0  0  0
    4.3871   -0.7873    4.2134 H   0  0  0  0  0  0
    2.1949   -2.2328    5.8063 H   0  0  0  0  0  0
    3.6745   -2.9748    5.2230 H   0  0  0  0  0  0
    5.0167   -1.3611    6.6280 H   0  0  0  0  0  0
    3.5242   -0.7025    7.2748 H   0  0  0  0  0  0
    4.4672   -2.4005    8.8483 H   0  0  0  0  0  0
    4.4262   -3.6291    7.5749 H   0  0  0  0  0  0
    2.9164   -2.9671    8.2121 H   0  0  0  0  0  0
  1  2  1  0  0  0
  1 17  1  0  0  0
  1 18  1  0  0  0
  1 19  1  0  0  0
  2  3  1  0  0  0
  2 20  1  0  0  0
  2 21  1  0  0  0
  3  4  1  0  0  0
  3 22  1  0  0  0
  3 23  1  0  0  0
  4  5  1  0  0  0
  4 24  1  0  0  0
  4 25  1  0  0  0
  5  6  1  0  0  0
  5 26  1  0  0  0
  5 27  1  0  0  0
  6  7  1  0  0  0
  6 28  1  0  0  0
  6 29  1  0  0  0
  7  8  1  0  0  0
  7 30  1  0  0  0
  7 31  1  0  0  0
  8  9  1  0  0  0
  8 32  1  0  0  0
  8 33  1  0  0  0
  9 10  2  0  0  0
  9 34  1  0  0  0
 10 11  1  0  0  0
 10 35  1  0  0  0
 11 12  1  0  0  0
 11 36  1  0  0  0
 11 37  1  0  0  0
 12 13  1  0  0  0
 12 38  1  0  0  0
 12 39  1  0  0  0
 13 14  1  0  0  0
 13 40  1  0  0  0
 13 41  1  0  0  0
 14 15  1  0  0  0
 14 42  1  0  0  0
 14 43  1  0  0  0
 15 16  1  0  0  0
 15 44  1  0  0  0
 15 45  1  0  0  0
 16 46  1  0  0  0
 16 47  1  0  0  0
 16 48  1  0  0  0
M  END
>  <i_m_Spin_multiplicity> (1)
1

>  <s_j_Task> (1)
Single Point

>  <s_j_QM_Method> (1)
DFT(b3lyp-d3)

>  <s_j_QM_Basis> (1)
cc-pvtz(-f)

>  <i_j_Number_of_canonical_orbitals> (1)
651

>  <i_j_Geometry_convergence_category> (1)
0

>  <r_j_Gas_Phase_Energy> (1)
-629.24012092996

>  <r_j_Final_Energy> (1)
-629.24012092996

>  <r_j_HOMO> (1)
-0.25042818019987

>  <r_j_LUMO> (1)
-0.0103198279896292

>  <r_j_Polarizability> (1)
197.450735762098

>  <r_j_QM_Dipole_(debye)> (1)
0.183463914845922

>  <r_j_QM_Dipole_X_(debye)> (1)
0.0725327341253263

>  <r_j_QM_Dipole_Y_(debye)> (1)
0.00632330964071081

>  <r_j_QM_Dipole_Z_(debye)> (1)
-0.168398415331274

>  <r_j_Lowest_Frequency_(cm-1)> (1)
26.2195384624254

>  <r_j_Highest_Frequency_(cm-1)> (1)
3083.58323376553

>  <r_j_2nd_Lowest_Frequency_(cm-1)> (1)
47.0604888428402

>  <i_j_Num_Negative_Frequencies> (1)
0

>  <r_j_Zero_Point_Energy_(kcal/mol)> (1)
282.471496384208

>  <r_j_Entropy_(cal/mol/K)_298.15K_1.00E+00atm> (1)
140.323255594518

>  <r_j_Enthalpy_(kcal/mol)_298.15K_1.00E+00atm> (1)
12.7464098172091

>  <r_j_Free_Energy_(kcal/mol)_298.15K_1.00E+00atm> (1)
-29.0909688382966

>  <r_j_Internal_Energy_(kcal/mol)_298.15K_1.00E+00atm> (1)
12.1539242283818

>  <r_j_Heat_Capacity_(cal/mol/K)_298.15K_1.00E+00atm> (1)
74.412278439828

>  <r_j_ln(Q)_298.15K_1.00E+00atm> (1)
49.0998758229331

>  <r_j_Total_Internal_Energy_(au)_298.15K_1.00E+00atm> (1)
-628.770605433066

>  <r_j_Total_Enthalpy_(au)_298.15K_1.00E+00atm> (1)
-628.769661247174

>  <r_j_Total_Free_Energy_(au)_298.15K_1.00E+00atm> (1)
-628.836333354378

>  <r_lp_tautomer_probability> (1)
1

>  <r_epik_Ionization_Penalty> (1)
  0.0000

>  <r_epik_Ionization_Penalty_Charging> (1)
  0.0000

>  <r_epik_Ionization_Penalty_Neutral> (1)
  0.0000

>  <r_epik_State_Penalty> (1)
  0.0000

>  <r_epik_Charging_Adjusted_Penalty> (1)
0

>  <i_epik_Tot_Q> (1)
0

>  <i_epik_Tot_abs_Q> (1)
0

>  <s_lp_Force_Field> (1)
S-OPLS

>  <r_lp_Energy> (1)
1.491486

>  <b_lp_Chiralities_Consistent> (1)
1

$$$$
