521958_4-methyl dodecane
                    3D
 Schrodinger Suite 2021-3.
 41 40  0  0  1  0            999 V2000
   -5.0571    4.2157    0.1527 C   0  0  0  0  0  0
   -4.4000    2.8325    0.1279 C   0  0  0  0  0  0
   -2.8680    2.8935    0.1033 C   0  0  0  0  0  0
   -2.2063    1.5112    0.0795 C   0  0  0  0  0  0
   -0.6744    1.5627    0.0500 C   0  0  0  0  0  0
   -0.0300    0.1706    0.0197 C   0  0  0  0  0  0
    1.5058    0.1778    0.0619 C   0  0  0  0  0  0
    2.1581    0.8483   -1.1568 C   0  0  0  0  0  0
    3.6772    0.6199   -1.2833 C   0  0  0  0  0  0
    4.4357    1.1400   -0.0525 C   0  0  0  0  0  0
    4.2505    1.2624   -2.5622 C   0  0  0  0  0  0
    3.7126    0.7001   -3.8847 C   0  0  0  0  0  0
    4.4231    1.2923   -5.1062 C   0  0  0  0  0  0
   -6.1496    4.1427    0.1692 H   0  0  0  0  0  0
   -4.7752    4.8020   -0.7295 H   0  0  0  0  0  0
   -4.7473    4.7834    1.0378 H   0  0  0  0  0  0
   -4.7240    2.2552    1.0047 H   0  0  0  0  0  0
   -4.7526    2.2733   -0.7496 H   0  0  0  0  0  0
   -2.5419    3.4695   -0.7748 H   0  0  0  0  0  0
   -2.5127    3.4533    0.9805 H   0  0  0  0  0  0
   -2.5338    0.9370    0.9581 H   0  0  0  0  0  0
   -2.5660    0.9526   -0.7966 H   0  0  0  0  0  0
   -0.3526    2.1429   -0.8247 H   0  0  0  0  0  0
   -0.3095    2.1121    0.9301 H   0  0  0  0  0  0
   -0.4069   -0.4117    0.8716 H   0  0  0  0  0  0
   -0.3649   -0.3611   -0.8828 H   0  0  0  0  0  0
    1.8337    0.6729    0.9849 H   0  0  0  0  0  0
    1.8629   -0.8593    0.1283 H   0  0  0  0  0  0
    1.6609    0.4703   -2.0592 H   0  0  0  0  0  0
    1.9688    1.9307   -1.1354 H   0  0  0  0  0  0
    3.8466   -0.4665   -1.3517 H   0  0  0  0  0  0
    4.2578    2.2139    0.0857 H   0  0  0  0  0  0
    5.5155    0.9942   -0.1655 H   0  0  0  0  0  0
    4.1283    0.6307    0.8653 H   0  0  0  0  0  0
    4.0709    2.3477   -2.5287 H   0  0  0  0  0  0
    5.3428    1.1396   -2.5526 H   0  0  0  0  0  0
    3.8278   -0.3926   -3.8851 H   0  0  0  0  0  0
    2.6365    0.8934   -3.9678 H   0  0  0  0  0  0
    4.0255    0.8833   -6.0408 H   0  0  0  0  0  0
    5.4983    1.0809   -5.0793 H   0  0  0  0  0  0
    4.3032    2.3814   -5.1411 H   0  0  0  0  0  0
  1  2  1  0  0  0
  1 14  1  0  0  0
  1 15  1  0  0  0
  1 16  1  0  0  0
  2  3  1  0  0  0
  2 17  1  0  0  0
  2 18  1  0  0  0
  3  4  1  0  0  0
  3 19  1  0  0  0
  3 20  1  0  0  0
  4  5  1  0  0  0
  4 21  1  0  0  0
  4 22  1  0  0  0
  5  6  1  0  0  0
  5 23  1  0  0  0
  5 24  1  0  0  0
  6  7  1  0  0  0
  6 25  1  0  0  0
  6 26  1  0  0  0
  7  8  1  0  0  0
  7 27  1  0  0  0
  7 28  1  0  0  0
  8  9  1  0  0  0
  8 29  1  0  0  0
  8 30  1  0  0  0
  9 10  1  0  0  0
  9 11  1  0  0  0
  9 31  1  0  0  0
 10 32  1  0  0  0
 10 33  1  0  0  0
 10 34  1  0  0  0
 11 12  1  0  0  0
 11 35  1  0  0  0
 11 36  1  0  0  0
 12 13  1  0  0  0
 12 37  1  0  0  0
 12 38  1  0  0  0
 13 39  1  0  0  0
 13 40  1  0  0  0
 13 41  1  0  0  0
M  END
>  <i_m_Spin_multiplicity> (1)
1

>  <s_j_Task> (1)
Single Point

>  <s_j_QM_Method> (1)
DFT(b3lyp-d3)

>  <s_j_QM_Basis> (1)
cc-pvtz(-f)

>  <i_j_Number_of_canonical_orbitals> (1)
547

>  <i_j_Geometry_convergence_category> (1)
3

>  <r_j_Gas_Phase_Energy> (1)
-512.486960168045

>  <r_j_Final_Energy> (1)
-512.486960168045

>  <r_j_HOMO> (1)
-0.286723758223701

>  <r_j_LUMO> (1)
0.040966560750769

>  <r_j_Polarizability> (1)
161.150445737776

>  <r_j_QM_Dipole_(debye)> (1)
0.171762932007249

>  <r_j_QM_Dipole_X_(debye)> (1)
-0.0524751654609156

>  <r_j_QM_Dipole_Y_(debye)> (1)
-0.163548000701261

>  <r_j_QM_Dipole_Z_(debye)> (1)
0.000955661130755853

>  <r_j_Lowest_Frequency_(cm-1)> (1)
40.7450073304837

>  <r_j_Highest_Frequency_(cm-1)> (1)
3056.312470846

>  <r_j_2nd_Lowest_Frequency_(cm-1)> (1)
62.5501312482433

>  <i_j_Num_Negative_Frequencies> (1)
0

>  <r_j_Zero_Point_Energy_(kcal/mol)> (1)
243.391866068158

>  <r_j_Entropy_(cal/mol/K)_298.15K_1.00E+00atm> (1)
125.788398555402

>  <r_j_Enthalpy_(kcal/mol)_298.15K_1.00E+00atm> (1)
10.81660248292

>  <r_j_Free_Energy_(kcal/mol)_298.15K_1.00E+00atm> (1)
-26.6872085463732

>  <r_j_Internal_Energy_(kcal/mol)_298.15K_1.00E+00atm> (1)
10.2241168940927

>  <r_j_Heat_Capacity_(cal/mol/K)_298.15K_1.00E+00atm> (1)
62.341435331505

>  <r_j_ln(Q)_298.15K_1.00E+00atm> (1)
45.0427977483739

>  <r_j_Total_Internal_Energy_(au)_298.15K_1.00E+00atm> (1)
-512.082797370371

>  <r_j_Total_Enthalpy_(au)_298.15K_1.00E+00atm> (1)
-512.081853184479

>  <r_j_Total_Free_Energy_(au)_298.15K_1.00E+00atm> (1)
-512.141619312039

>  <r_lp_tautomer_probability> (1)
1

>  <r_epik_Ionization_Penalty> (1)
  0.0000

>  <r_epik_Ionization_Penalty_Charging> (1)
  0.0000

>  <r_epik_Ionization_Penalty_Neutral> (1)
  0.0000

>  <r_epik_State_Penalty> (1)
  0.0000

>  <r_epik_Charging_Adjusted_Penalty> (1)
0

>  <i_epik_Tot_Q> (1)
0

>  <i_epik_Tot_abs_Q> (1)
0

>  <s_lp_Force_Field> (1)
S-OPLS

>  <r_lp_Energy> (1)
7.126688

>  <b_lp_Chiralities_Consistent> (1)
1

$$$$
