523224_1,2,4-trimethylcyclopentene
                    3D
 Schrodinger Suite 2021-3.
 22 22  0  0  1  0            999 V2000
    0.0014   -0.1561   -0.0011 C   0  0  0  0  0  0
    1.5263   -0.0731   -0.0003 C   0  0  0  0  0  0
    2.1341    0.6650   -1.2176 C   0  0  0  0  0  0
    3.4025    1.2895   -0.6719 C   0  0  0  0  0  0
    3.4022    1.2892    0.6720 C   0  0  0  0  0  0
    2.1337    0.6646    1.2175 C   0  0  0  0  0  0
    4.4264    1.8563    1.6064 C   0  0  0  0  0  0
    4.4270    1.8561   -1.6066 C   0  0  0  0  0  0
   -0.4414    0.8472   -0.0015 H   0  0  0  0  0  0
   -0.3707   -0.6845    0.8837 H   0  0  0  0  0  0
   -0.3696   -0.6846   -0.8864 H   0  0  0  0  0  0
    1.9348   -1.0925   -0.0003 H   0  0  0  0  0  0
    2.3179   -0.0050   -2.0678 H   0  0  0  0  0  0
    1.4543    1.4496   -1.5883 H   0  0  0  0  0  0
    1.4539    1.4493    1.5879 H   0  0  0  0  0  0
    2.3176   -0.0051    2.0682 H   0  0  0  0  0  0
    3.9855    2.6362    2.2420 H   0  0  0  0  0  0
    5.2793    2.2952    1.0826 H   0  0  0  0  0  0
    4.8087    1.0824    2.2852 H   0  0  0  0  0  0
    3.9862    2.6363   -2.2417 H   0  0  0  0  0  0
    4.8076    1.0819   -2.2860 H   0  0  0  0  0  0
    5.2814    2.2943   -1.0841 H   0  0  0  0  0  0
  1  2  1  0  0  0
  1  9  1  0  0  0
  1 10  1  0  0  0
  1 11  1  0  0  0
  2  6  1  0  0  0
  2  3  1  0  0  0
  2 12  1  0  0  0
  3  4  1  0  0  0
  3 13  1  0  0  0
  3 14  1  0  0  0
  4  5  2  0  0  0
  4  8  1  0  0  0
  5  6  1  0  0  0
  5  7  1  0  0  0
  6 15  1  0  0  0
  6 16  1  0  0  0
  7 17  1  0  0  0
  7 18  1  0  0  0
  7 19  1  0  0  0
  8 20  1  0  0  0
  8 21  1  0  0  0
  8 22  1  0  0  0
M  END
>  <i_m_Spin_multiplicity> (1)
1

>  <s_j_Task> (1)
Single Point

>  <s_j_QM_Method> (1)
DFT(b3lyp-d3)

>  <s_j_QM_Basis> (1)
cc-pvtz(-f)

>  <i_j_Number_of_canonical_orbitals> (1)
307

>  <i_j_Geometry_convergence_category> (1)
3

>  <r_j_Gas_Phase_Energy> (1)
-313.401825171088

>  <r_j_Final_Energy> (1)
-313.401825171088

>  <r_j_HOMO> (1)
-0.215210444264811

>  <r_j_LUMO> (1)
0.0314483086498656

>  <r_j_Polarizability> (1)
94.2832774439009

>  <r_j_QM_Dipole_(debye)> (1)
0.135886681765901

>  <r_j_QM_Dipole_X_(debye)> (1)
0.129729767085901

>  <r_j_QM_Dipole_Y_(debye)> (1)
0.0404164678764502

>  <r_j_QM_Dipole_Z_(debye)> (1)
-0.00137365846450382

>  <r_j_Lowest_Frequency_(cm-1)> (1)
115.665523843261

>  <r_j_Highest_Frequency_(cm-1)> (1)
3065.56862518871

>  <r_j_2nd_Lowest_Frequency_(cm-1)> (1)
195.408975362449

>  <i_j_Num_Negative_Frequencies> (1)
0

>  <r_j_Zero_Point_Energy_(kcal/mol)> (1)
125.200678489121

>  <r_j_Entropy_(cal/mol/K)_298.15K_1.00E+00atm> (1)
88.2697883349711

>  <r_j_Enthalpy_(kcal/mol)_298.15K_1.00E+00atm> (1)
6.00759093967676

>  <r_j_Free_Energy_(kcal/mol)_298.15K_1.00E+00atm> (1)
-20.3100464523949

>  <r_j_Internal_Energy_(kcal/mol)_298.15K_1.00E+00atm> (1)
5.41510535084948

>  <r_j_Heat_Capacity_(cal/mol/K)_298.15K_1.00E+00atm> (1)
33.7092018134961

>  <r_j_ln(Q)_298.15K_1.00E+00atm> (1)
34.2793931791577

>  <r_j_Total_Internal_Energy_(au)_298.15K_1.00E+00atm> (1)
-313.193675668834

>  <r_j_Total_Enthalpy_(au)_298.15K_1.00E+00atm> (1)
-313.192731482942

>  <r_j_Total_Free_Energy_(au)_298.15K_1.00E+00atm> (1)
-313.234671307997

>  <r_lp_tautomer_probability> (1)
1

>  <r_epik_Ionization_Penalty> (1)
  0.0000

>  <r_epik_Ionization_Penalty_Charging> (1)
  0.0000

>  <r_epik_Ionization_Penalty_Neutral> (1)
  0.0000

>  <r_epik_State_Penalty> (1)
  0.0000

>  <r_epik_Charging_Adjusted_Penalty> (1)
0

>  <i_epik_Tot_Q> (1)
0

>  <i_epik_Tot_abs_Q> (1)
0

>  <s_lp_Force_Field> (1)
S-OPLS

>  <r_lp_Energy> (1)
-19.0898

>  <b_lp_Chiralities_Consistent> (1)
1

$$$$
