526118_iso-Hexacosane
                    3D
 Schrodinger Suite 2021-3.
 80 79  0  0  1  0            999 V2000
    1.3195    1.3187   13.5191 C   0  0  0  0  0  0
    0.7205    0.7125   12.2466 C   0  0  0  0  0  0
    0.8442    1.6311   11.0248 C   0  0  0  0  0  0
    0.2505    1.0239    9.7490 C   0  0  0  0  0  0
    0.3767    1.9277    8.5170 C   0  0  0  0  0  0
   -0.2043    1.2958    7.2470 C   0  0  0  0  0  0
   -0.0624    2.1719    5.9969 C   0  0  0  0  0  0
   -0.6092    1.5025    4.7307 C   0  0  0  0  0  0
   -0.4290    2.3391    3.4588 C   0  0  0  0  0  0
   -0.9085    1.6185    2.1929 C   0  0  0  0  0  0
   -0.6465    2.4103    0.9059 C   0  0  0  0  0  0
   -1.0881    1.6961   -0.3848 C   0  0  0  0  0  0
   -0.4966    0.2891   -0.5899 C   0  0  0  0  0  0
    1.0346    0.2298   -0.5281 C   0  0  0  0  0  0
    1.5999   -1.1833   -0.7164 C   0  0  0  0  0  0
    3.1193   -1.2489   -0.5223 C   0  0  0  0  0  0
    3.7010   -2.6639   -0.6232 C   0  0  0  0  0  0
    5.2029   -2.7141   -0.3192 C   0  0  0  0  0  0
    5.8007   -4.1252   -0.3604 C   0  0  0  0  0  0
    7.2814   -4.1584    0.0360 C   0  0  0  0  0  0
    7.8951   -5.5630    0.0290 C   0  0  0  0  0  0
    9.3541   -5.5824    0.5014 C   0  0  0  0  0  0
    9.9774   -6.9836    0.4903 C   0  0  0  0  0  0
   11.3807   -7.0775    1.1194 C   0  0  0  0  0  0
   12.4126   -6.2120    0.3813 C   0  0  0  0  0  0
   11.8485   -8.5389    1.1746 C   0  0  0  0  0  0
    1.2179    0.6422   14.3743 H   0  0  0  0  0  0
    0.8232    2.2611   13.7784 H   0  0  0  0  0  0
    2.3865    1.5338   13.3887 H   0  0  0  0  0  0
    1.2130   -0.2452   12.0285 H   0  0  0  0  0  0
   -0.3392    0.4763   12.4148 H   0  0  0  0  0  0
    0.3494    2.5896   11.2387 H   0  0  0  0  0  0
    1.9044    1.8696   10.8561 H   0  0  0  0  0  0
    0.7437    0.0628    9.5433 H   0  0  0  0  0  0
   -0.8100    0.7879    9.9187 H   0  0  0  0  0  0
   -0.1252    2.8861    8.7126 H   0  0  0  0  0  0
    1.4364    2.1694    8.3505 H   0  0  0  0  0  0
    0.2910    0.3305    7.0671 H   0  0  0  0  0  0
   -1.2666    1.0630    7.4095 H   0  0  0  0  0  0
   -0.5762    3.1303    6.1587 H   0  0  0  0  0  0
    0.9985    2.4189    5.8461 H   0  0  0  0  0  0
   -0.1081    0.5329    4.5946 H   0  0  0  0  0  0
   -1.6754    1.2728    4.8698 H   0  0  0  0  0  0
   -0.9600    3.2957    3.5662 H   0  0  0  0  0  0
    0.6346    2.5948    3.3442 H   0  0  0  0  0  0
   -0.4038    0.6451    2.1365 H   0  0  0  0  0  0
   -1.9823    1.3967    2.2768 H   0  0  0  0  0  0
   -1.1608    3.3788    0.9671 H   0  0  0  0  0  0
    0.4242    2.6471    0.8463 H   0  0  0  0  0  0
   -2.1839    1.6197   -0.3958 H   0  0  0  0  0  0
   -0.8180    2.3270   -1.2424 H   0  0  0  0  0  0
   -0.9088   -0.3963    0.1626 H   0  0  0  0  0  0
   -0.8350   -0.0982   -1.5603 H   0  0  0  0  0  0
    1.4609    0.9036   -1.2853 H   0  0  0  0  0  0
    1.3780    0.6124    0.4420 H   0  0  0  0  0  0
    1.1171   -1.8611    0.0027 H   0  0  0  0  0  0
    1.3346   -1.5616   -1.7138 H   0  0  0  0  0  0
    3.6123   -0.5967   -1.2574 H   0  0  0  0  0  0
    3.3689   -0.8317    0.4643 H   0  0  0  0  0  0
    3.1694   -3.3238    0.0776 H   0  0  0  0  0  0
    3.5116   -3.0720   -1.6263 H   0  0  0  0  0  0
    5.7418   -2.0686   -1.0276 H   0  0  0  0  0  0
    5.3791   -2.2806    0.6761 H   0  0  0  0  0  0
    5.2313   -4.7800    0.3151 H   0  0  0  0  0  0
    5.6781   -4.5488   -1.3674 H   0  0  0  0  0  0
    7.8549   -3.5071   -0.6393 H   0  0  0  0  0  0
    7.3926   -3.7230    1.0397 H   0  0  0  0  0  0
    7.2967   -6.2244    0.6721 H   0  0  0  0  0  0
    7.8309   -5.9867   -0.9835 H   0  0  0  0  0  0
    9.9418   -4.9042   -0.1307 H   0  0  0  0  0  0
    9.4073   -5.1709    1.5200 H   0  0  0  0  0  0
    9.3082   -7.6710    1.0272 H   0  0  0  0  0  0
   10.0243   -7.3547   -0.5447 H   0  0  0  0  0  0
   11.3054   -6.7068    2.1533 H   0  0  0  0  0  0
   12.4896   -6.5161   -0.6703 H   0  0  0  0  0  0
   13.4061   -6.3177    0.8308 H   0  0  0  0  0  0
   12.1512   -5.1498    0.4039 H   0  0  0  0  0  0
   11.9428   -8.9544    0.1634 H   0  0  0  0  0  0
   11.1398   -9.1660    1.7268 H   0  0  0  0  0  0
   12.8260   -8.6265    1.6614 H   0  0  0  0  0  0
  1  2  1  0  0  0
  1 27  1  0  0  0
  1 28  1  0  0  0
  1 29  1  0  0  0
  2  3  1  0  0  0
  2 30  1  0  0  0
  2 31  1  0  0  0
  3  4  1  0  0  0
  3 32  1  0  0  0
  3 33  1  0  0  0
  4  5  1  0  0  0
  4 34  1  0  0  0
  4 35  1  0  0  0
  5  6  1  0  0  0
  5 36  1  0  0  0
  5 37  1  0  0  0
  6  7  1  0  0  0
  6 38  1  0  0  0
  6 39  1  0  0  0
  7  8  1  0  0  0
  7 40  1  0  0  0
  7 41  1  0  0  0
  8  9  1  0  0  0
  8 42  1  0  0  0
  8 43  1  0  0  0
  9 10  1  0  0  0
  9 44  1  0  0  0
  9 45  1  0  0  0
 10 11  1  0  0  0
 10 46  1  0  0  0
 10 47  1  0  0  0
 11 12  1  0  0  0
 11 48  1  0  0  0
 11 49  1  0  0  0
 12 13  1  0  0  0
 12 50  1  0  0  0
 12 51  1  0  0  0
 13 14  1  0  0  0
 13 52  1  0  0  0
 13 53  1  0  0  0
 14 15  1  0  0  0
 14 54  1  0  0  0
 14 55  1  0  0  0
 15 16  1  0  0  0
 15 56  1  0  0  0
 15 57  1  0  0  0
 16 17  1  0  0  0
 16 58  1  0  0  0
 16 59  1  0  0  0
 17 18  1  0  0  0
 17 60  1  0  0  0
 17 61  1  0  0  0
 18 19  1  0  0  0
 18 62  1  0  0  0
 18 63  1  0  0  0
 19 20  1  0  0  0
 19 64  1  0  0  0
 19 65  1  0  0  0
 20 21  1  0  0  0
 20 66  1  0  0  0
 20 67  1  0  0  0
 21 22  1  0  0  0
 21 68  1  0  0  0
 21 69  1  0  0  0
 22 23  1  0  0  0
 22 70  1  0  0  0
 22 71  1  0  0  0
 23 24  1  0  0  0
 23 72  1  0  0  0
 23 73  1  0  0  0
 24 25  1  0  0  0
 24 26  1  0  0  0
 24 74  1  0  0  0
 25 75  1  0  0  0
 25 76  1  0  0  0
 25 77  1  0  0  0
 26 78  1  0  0  0
 26 79  1  0  0  0
 26 80  1  0  0  0
M  END
> <i_m_Spin_multiplicity>
1

> <s_j_Task>
Single Point

> <s_j_QM_Method>
DFT(b3lyp-d3)

> <s_j_QM_Basis>
cc-pvtz(-f)

> <i_j_Number_of_canonical_orbitals>
1076

> <i_j_Geometry_convergence_category>
3

> <r_j_Gas_Phase_Energy>
-1023.76957562308

> <r_j_Final_Energy>
-1023.76957562308

> <r_j_HOMO>
-0.299717727715309

> <r_j_LUMO>
-0.0240644454730737

> <r_j_Polarizability>
323.732653097326

> <r_j_QM_Dipole_(debye)>
0.114225923759016

> <r_j_QM_Dipole_X_(debye)>
-0.100739711406102

> <r_j_QM_Dipole_Y_(debye)>
0.0533036572012438

> <r_j_QM_Dipole_Z_(debye)>
0.00760212689897198

> <r_j_Lowest_Frequency_(cm-1)>
16.7990024794862

> <r_j_Highest_Frequency_(cm-1)>
3053.33182380256

> <r_j_2nd_Lowest_Frequency_(cm-1)>
29.0209809955539

> <i_j_Num_Negative_Frequencies>
0

> <r_j_Zero_Point_Energy_(kcal/mol)>
475.766393872038

> <r_j_Entropy_(cal/mol/K)_298.15K_1.00E+00atm>
195.880066674352

> <r_j_Enthalpy_(kcal/mol)_298.15K_1.00E+00atm>
20.6640613888707

> <r_j_Free_Energy_(kcal/mol)_298.15K_1.00E+00atm>
-37.7375804900875

> <r_j_Internal_Energy_(kcal/mol)_298.15K_1.00E+00atm>
20.0715758000434

> <r_j_Heat_Capacity_(cal/mol/K)_298.15K_1.00E+00atm>
123.88557259398

> <r_j_ln(Q)_298.15K_1.00E+00atm>
63.6936681696895

> <r_j_Total_Internal_Energy_(au)_298.15K_1.00E+00atm>
-1022.97940751666

> <r_j_Total_Enthalpy_(au)_298.15K_1.00E+00atm>
-1022.97846333076

> <r_j_Total_Free_Energy_(au)_298.15K_1.00E+00atm>
-1023.07153227182

> <r_lp_tautomer_probability>
1

> <r_epik_Ionization_Penalty>
  0.0000

> <r_epik_Ionization_Penalty_Charging>
  0.0000

> <r_epik_Ionization_Penalty_Neutral>
  0.0000

> <r_epik_State_Penalty>
  0.0000

> <r_epik_Charging_Adjusted_Penalty>
0

> <i_epik_Tot_Q>
0

> <i_epik_Tot_abs_Q>
0

> <s_lp_Force_Field>
S-OPLS

> <r_lp_Energy>
13.70373

> <b_lp_Chiralities_Consistent>
1

$$$$
