528288_1,2-dimethyl-3-propyl benzene
                    3D
 Schrodinger Suite 2021-3.
 27 27  0  0  1  0            999 V2000
   -2.0573    1.5852   -0.0072 C   0  0  0  0  0  0
   -0.5317    1.4922    0.0739 C   0  0  0  0  0  0
   -0.0147    0.0486   -0.0784 C   0  0  0  0  0  0
    1.4968   -0.0455   -0.0051 C   0  0  0  0  0  0
    2.2173   -0.1181   -1.2052 C   0  0  0  0  0  0
    3.6068   -0.1569   -1.2112 C   0  0  0  0  0  0
    4.2973   -0.1234   -0.0026 C   0  0  0  0  0  0
    3.6103   -0.0518    1.2120 C   0  0  0  0  0  0
    2.1982   -0.0094    1.2175 C   0  0  0  0  0  0
    1.4842    0.0766    2.5499 C   0  0  0  0  0  0
    4.3862   -0.0166    2.5085 C   0  0  0  0  0  0
   -2.4024    2.6191    0.0961 H   0  0  0  0  0  0
   -2.5311    0.9939    0.7852 H   0  0  0  0  0  0
   -2.4255    1.2041   -0.9669 H   0  0  0  0  0  0
   -0.0736    2.1118   -0.7072 H   0  0  0  0  0  0
   -0.1826    1.9040    1.0290 H   0  0  0  0  0  0
   -0.4861   -0.5866    0.6817 H   0  0  0  0  0  0
   -0.3517   -0.3448   -1.0453 H   0  0  0  0  0  0
    1.6722   -0.1459   -2.1457 H   0  0  0  0  0  0
    4.1496   -0.2152   -2.1504 H   0  0  0  0  0  0
    5.3840   -0.1538    0.0022 H   0  0  0  0  0  0
    1.7319    1.0091    3.0719 H   0  0  0  0  0  0
    1.7852   -0.7417    3.2141 H   0  0  0  0  0  0
    0.3993    0.0365    2.4535 H   0  0  0  0  0  0
    4.1486   -0.8755    3.1482 H   0  0  0  0  0  0
    4.1577    0.8821    3.0938 H   0  0  0  0  0  0
    5.4636   -0.0286    2.3236 H   0  0  0  0  0  0
  1  2  1  0  0  0
  1 12  1  0  0  0
  1 13  1  0  0  0
  1 14  1  0  0  0
  2  3  1  0  0  0
  2 15  1  0  0  0
  2 16  1  0  0  0
  3  4  1  0  0  0
  3 17  1  0  0  0
  3 18  1  0  0  0
  4  9  1  0  0  0
  4  5  2  0  0  0
  5  6  1  0  0  0
  5 19  1  0  0  0
  6  7  2  0  0  0
  6 20  1  0  0  0
  7  8  1  0  0  0
  7 21  1  0  0  0
  8  9  2  0  0  0
  8 11  1  0  0  0
  9 10  1  0  0  0
 10 22  1  0  0  0
 10 23  1  0  0  0
 10 24  1  0  0  0
 11 25  1  0  0  0
 11 26  1  0  0  0
 11 27  1  0  0  0
M  END
>  <i_m_Spin_multiplicity> (1)
1

>  <s_j_Task> (1)
Single Point

>  <s_j_QM_Method> (1)
DFT(b3lyp-d3)

>  <s_j_QM_Basis> (1)
cc-pvtz(-f)

>  <i_j_Number_of_canonical_orbitals> (1)
389

>  <i_j_Geometry_convergence_category> (1)
3

>  <r_j_Gas_Phase_Energy> (1)
-428.984721172892

>  <r_j_Final_Energy> (1)
-428.984721172892

>  <r_j_HOMO> (1)
-0.237557814699005

>  <r_j_LUMO> (1)
-0.00702127203396713

>  <r_j_Polarizability> (1)
127.989434427685

>  <r_j_QM_Dipole_(debye)> (1)
0.673876717480615

>  <r_j_QM_Dipole_X_(debye)> (1)
-0.281306536547322

>  <r_j_QM_Dipole_Y_(debye)> (1)
0.162021226772476

>  <r_j_QM_Dipole_Z_(debye)> (1)
0.590529918745309

>  <r_j_Lowest_Frequency_(cm-1)> (1)
86.7400516724586

>  <r_j_Highest_Frequency_(cm-1)> (1)
3137.8883045777

>  <r_j_2nd_Lowest_Frequency_(cm-1)> (1)
95.7823530526402

>  <i_j_Num_Negative_Frequencies> (1)
0

>  <r_j_Zero_Point_Energy_(kcal/mol)> (1)
150.75901225686

>  <r_j_Entropy_(cal/mol/K)_298.15K_1.00E+00atm> (1)
100.358185897846

>  <r_j_Enthalpy_(kcal/mol)_298.15K_1.00E+00atm> (1)
7.48435985553595

>  <r_j_Free_Energy_(kcal/mol)_298.15K_1.00E+00atm> (1)
-22.4374332699069

>  <r_j_Internal_Energy_(kcal/mol)_298.15K_1.00E+00atm> (1)
6.89187426670867

>  <r_j_Heat_Capacity_(cal/mol/K)_298.15K_1.00E+00atm> (1)
43.6262348500097

>  <r_j_ln(Q)_298.15K_1.00E+00atm> (1)
37.8700067866933

>  <r_j_Total_Internal_Energy_(au)_298.15K_1.00E+00atm> (1)
-428.733488491856

>  <r_j_Total_Enthalpy_(au)_298.15K_1.00E+00atm> (1)
-428.732544305964

>  <r_j_Total_Free_Energy_(au)_298.15K_1.00E+00atm> (1)
-428.780227718814

>  <r_lp_tautomer_probability> (1)
1

>  <r_epik_Ionization_Penalty> (1)
  0.0000

>  <r_epik_Ionization_Penalty_Charging> (1)
  0.0000

>  <r_epik_Ionization_Penalty_Neutral> (1)
  0.0000

>  <r_epik_State_Penalty> (1)
  0.0000

>  <r_epik_Charging_Adjusted_Penalty> (1)
0

>  <i_epik_Tot_Q> (1)
0

>  <i_epik_Tot_abs_Q> (1)
0

>  <s_lp_Force_Field> (1)
S-OPLS

>  <r_lp_Energy> (1)
9.51256

>  <b_lp_Chiralities_Consistent> (1)
1

$$$$
