528476_4,5-dimethyldecane
                    3D
 Schrodinger Suite 2021-3.
 38 37  0  0  1  0            999 V2000
   -4.2857    2.8628   -0.0790 C   0  0  0  0  0  0
   -2.7697    2.8539    0.1387 C   0  0  0  0  0  0
   -2.1284    1.4920   -0.1529 C   0  0  0  0  0  0
   -0.6105    1.4761    0.0621 C   0  0  0  0  0  0
    0.0252    0.1099   -0.2262 C   0  0  0  0  0  0
    1.5586    0.0563   -0.0347 C   0  0  0  0  0  0
    2.2526    0.7942   -1.1923 C   0  0  0  0  0  0
    2.0510   -1.4111    0.1418 C   0  0  0  0  0  0
    1.6249   -1.9643    1.5138 C   0  0  0  0  0  0
    3.5744   -1.5632   -0.0500 C   0  0  0  0  0  0
    4.1130   -2.9900    0.1295 C   0  0  0  0  0  0
    5.5928   -3.1071   -0.2499 C   0  0  0  0  0  0
   -4.7183    3.8457    0.1350 H   0  0  0  0  0  0
   -4.7811    2.1316    0.5700 H   0  0  0  0  0  0
   -4.5363    2.6063   -1.1148 H   0  0  0  0  0  0
   -2.3019    3.6168   -0.4987 H   0  0  0  0  0  0
   -2.5445    3.1448    1.1738 H   0  0  0  0  0  0
   -2.5957    0.7270    0.4838 H   0  0  0  0  0  0
   -2.3525    1.2001   -1.1891 H   0  0  0  0  0  0
   -0.1556    2.2495   -0.5702 H   0  0  0  0  0  0
   -0.3875    1.7637    1.0996 H   0  0  0  0  0  0
   -0.4628   -0.6312    0.4174 H   0  0  0  0  0  0
   -0.2078   -0.1930   -1.2578 H   0  0  0  0  0  0
    1.8038    0.5908    0.8971 H   0  0  0  0  0  0
    2.1415    0.2369   -2.1308 H   0  0  0  0  0  0
    3.3206    0.9392   -1.0118 H   0  0  0  0  0  0
    1.8144    1.7846   -1.3453 H   0  0  0  0  0  0
    1.5619   -2.0135   -0.6410 H   0  0  0  0  0  0
    2.2037   -1.4838    2.3125 H   0  0  0  0  0  0
    1.7893   -3.0426    1.5867 H   0  0  0  0  0  0
    0.5669   -1.7856    1.7219 H   0  0  0  0  0  0
    3.8496   -1.2270   -1.0561 H   0  0  0  0  0  0
    4.0945   -0.8912    0.6496 H   0  0  0  0  0  0
    3.9830   -3.3173    1.1674 H   0  0  0  0  0  0
    3.5192   -3.6803   -0.4859 H   0  0  0  0  0  0
    5.9655   -4.1268   -0.1070 H   0  0  0  0  0  0
    6.2093   -2.4383    0.3619 H   0  0  0  0  0  0
    5.7556   -2.8356   -1.2993 H   0  0  0  0  0  0
  1  2  1  0  0  0
  1 13  1  0  0  0
  1 14  1  0  0  0
  1 15  1  0  0  0
  2  3  1  0  0  0
  2 16  1  0  0  0
  2 17  1  0  0  0
  3  4  1  0  0  0
  3 18  1  0  0  0
  3 19  1  0  0  0
  4  5  1  0  0  0
  4 20  1  0  0  0
  4 21  1  0  0  0
  5  6  1  0  0  0
  5 22  1  0  0  0
  5 23  1  0  0  0
  6  7  1  0  0  0
  6  8  1  0  0  0
  6 24  1  0  0  0
  7 25  1  0  0  0
  7 26  1  0  0  0
  7 27  1  0  0  0
  8  9  1  0  0  0
  8 10  1  0  0  0
  8 28  1  0  0  0
  9 29  1  0  0  0
  9 30  1  0  0  0
  9 31  1  0  0  0
 10 11  1  0  0  0
 10 32  1  0  0  0
 10 33  1  0  0  0
 11 12  1  0  0  0
 11 34  1  0  0  0
 11 35  1  0  0  0
 12 36  1  0  0  0
 12 37  1  0  0  0
 12 38  1  0  0  0
M  END
>  <i_m_Spin_multiplicity> (1)
1

>  <s_j_Task> (1)
Single Point

>  <s_j_QM_Method> (1)
DFT(b3lyp-d3)

>  <s_j_QM_Basis> (1)
cc-pvtz(-f)

>  <i_j_Number_of_canonical_orbitals> (1)
507

>  <i_j_Geometry_convergence_category> (1)
1

>  <r_j_Gas_Phase_Energy> (1)
-473.15480713044

>  <r_j_Final_Energy> (1)
-473.15480713044

>  <r_j_HOMO> (1)
-0.291336887316956

>  <r_j_LUMO> (1)
0.0209874272613817

>  <r_j_Polarizability> (1)
148.904078969262

>  <r_j_QM_Dipole_(debye)> (1)
0.0260567967077218

>  <r_j_QM_Dipole_X_(debye)> (1)
-0.00716286020596703

>  <r_j_QM_Dipole_Y_(debye)> (1)
-0.002468539954489

>  <r_j_QM_Dipole_Z_(debye)> (1)
0.024931032847245

>  <r_j_Lowest_Frequency_(cm-1)> (1)
48.7366232144736

>  <r_j_Highest_Frequency_(cm-1)> (1)
3066.01313024642

>  <r_j_2nd_Lowest_Frequency_(cm-1)> (1)
60.6839136711465

>  <i_j_Num_Negative_Frequencies> (1)
0

>  <r_j_Zero_Point_Energy_(kcal/mol)> (1)
225.306670411338

>  <r_j_Entropy_(cal/mol/K)_298.15K_1.00E+00atm> (1)
119.051828888805

>  <r_j_Enthalpy_(kcal/mol)_298.15K_1.00E+00atm> (1)
10.0691126354037

>  <r_j_Free_Energy_(kcal/mol)_298.15K_1.00E+00atm> (1)
-25.4261901477936

>  <r_j_Internal_Energy_(kcal/mol)_298.15K_1.00E+00atm> (1)
9.47662704657647

>  <r_j_Heat_Capacity_(cal/mol/K)_298.15K_1.00E+00atm> (1)
58.2152405704204

>  <r_j_ln(Q)_298.15K_1.00E+00atm> (1)
42.9144448865337

>  <r_j_Total_Internal_Energy_(au)_298.15K_1.00E+00atm> (1)
-472.780656127654

>  <r_j_Total_Enthalpy_(au)_298.15K_1.00E+00atm> (1)
-472.779711941762

>  <r_j_Total_Free_Energy_(au)_298.15K_1.00E+00atm> (1)
-472.836277307673

>  <r_lp_tautomer_probability> (1)
1

>  <r_epik_Ionization_Penalty> (1)
  0.0000

>  <r_epik_Ionization_Penalty_Charging> (1)
  0.0000

>  <r_epik_Ionization_Penalty_Neutral> (1)
  0.0000

>  <r_epik_State_Penalty> (1)
  0.0000

>  <r_epik_Charging_Adjusted_Penalty> (1)
0

>  <i_epik_Tot_Q> (1)
0

>  <i_epik_Tot_abs_Q> (1)
0

>  <s_lp_Force_Field> (1)
S-OPLS

>  <r_lp_Energy> (1)
10.18

>  <b_lp_Chiralities_Consistent> (1)
1

$$$$
