528477_4,6-dimethyl decane
                    3D
 Schrodinger Suite 2021-3.
 38 37  0  0  1  0            999 V2000
   -4.2734   -1.4930   -2.5308 C   0  0  0  0  0  0
   -2.7452   -1.5089   -2.4338 C   0  0  0  0  0  0
   -2.2058   -0.6414   -1.2897 C   0  0  0  0  0  0
   -0.6738   -0.6453   -1.2133 C   0  0  0  0  0  0
   -0.0724    0.0802    0.0052 C   0  0  0  0  0  0
   -0.5039    1.5540    0.0691 C   0  0  0  0  0  0
    1.4692   -0.0019    0.0125 C   0  0  0  0  0  0
    2.1003   -1.4095   -0.0111 C   0  0  0  0  0  0
    1.5903   -2.2815    1.1460 C   0  0  0  0  0  0
    3.6406   -1.3380    0.0181 C   0  0  0  0  0  0
    4.2901   -0.6530   -1.1918 C   0  0  0  0  0  0
    5.8189   -0.7515   -1.1725 C   0  0  0  0  0  0
   -4.6319   -2.1219   -3.3525 H   0  0  0  0  0  0
   -4.6469   -0.4766   -2.7010 H   0  0  0  0  0  0
   -4.7307   -1.8609   -1.6049 H   0  0  0  0  0  0
   -2.3951   -2.5418   -2.3006 H   0  0  0  0  0  0
   -2.3125   -1.1629   -3.3827 H   0  0  0  0  0  0
   -2.5776    0.3834   -1.4163 H   0  0  0  0  0  0
   -2.6198   -1.0002   -0.3358 H   0  0  0  0  0  0
   -0.3370   -1.6896   -1.2103 H   0  0  0  0  0  0
   -0.2625   -0.1979   -2.1309 H   0  0  0  0  0  0
   -0.4527   -0.4140    0.9108 H   0  0  0  0  0  0
   -0.2109    2.0844   -0.8458 H   0  0  0  0  0  0
   -0.0295    2.0644    0.9145 H   0  0  0  0  0  0
   -1.5863    1.6609    0.1850 H   0  0  0  0  0  0
    1.8365    0.5716   -0.8489 H   0  0  0  0  0  0
    1.8409    0.5224    0.9057 H   0  0  0  0  0  0
    1.8212   -1.9010   -0.9542 H   0  0  0  0  0  0
    1.7983   -1.8049    2.1120 H   0  0  0  0  0  0
    2.0802   -3.2614    1.1461 H   0  0  0  0  0  0
    0.5114   -2.4528    1.0860 H   0  0  0  0  0  0
    3.9610   -0.8302    0.9405 H   0  0  0  0  0  0
    4.0332   -2.3624    0.0877 H   0  0  0  0  0  0
    3.9036   -1.1092   -2.1139 H   0  0  0  0  0  0
    3.9991    0.4035   -1.2293 H   0  0  0  0  0  0
    6.2655   -0.2554   -2.0406 H   0  0  0  0  0  0
    6.1474   -1.7973   -1.1793 H   0  0  0  0  0  0
    6.2320   -0.2831   -0.2716 H   0  0  0  0  0  0
  1  2  1  0  0  0
  1 13  1  0  0  0
  1 14  1  0  0  0
  1 15  1  0  0  0
  2  3  1  0  0  0
  2 16  1  0  0  0
  2 17  1  0  0  0
  3  4  1  0  0  0
  3 18  1  0  0  0
  3 19  1  0  0  0
  4  5  1  0  0  0
  4 20  1  0  0  0
  4 21  1  0  0  0
  5  6  1  0  0  0
  5  7  1  0  0  0
  5 22  1  0  0  0
  6 23  1  0  0  0
  6 24  1  0  0  0
  6 25  1  0  0  0
  7  8  1  0  0  0
  7 26  1  0  0  0
  7 27  1  0  0  0
  8  9  1  0  0  0
  8 10  1  0  0  0
  8 28  1  0  0  0
  9 29  1  0  0  0
  9 30  1  0  0  0
  9 31  1  0  0  0
 10 11  1  0  0  0
 10 32  1  0  0  0
 10 33  1  0  0  0
 11 12  1  0  0  0
 11 34  1  0  0  0
 11 35  1  0  0  0
 12 36  1  0  0  0
 12 37  1  0  0  0
 12 38  1  0  0  0
M  END
>  <i_m_Spin_multiplicity> (1)
1

>  <s_j_Task> (1)
Single Point

>  <s_j_QM_Method> (1)
DFT(b3lyp-d3)

>  <s_j_QM_Basis> (1)
cc-pvtz(-f)

>  <i_j_Number_of_canonical_orbitals> (1)
506

>  <i_j_Geometry_convergence_category> (1)
1

>  <r_j_Gas_Phase_Energy> (1)
-473.158198215301

>  <r_j_Final_Energy> (1)
-473.158198215301

>  <r_j_HOMO> (1)
-0.29877932639409

>  <r_j_LUMO> (1)
0.0237093252078258

>  <r_j_Polarizability> (1)
148.00242363883

>  <r_j_QM_Dipole_(debye)> (1)
0.104509293879594

>  <r_j_QM_Dipole_X_(debye)> (1)
-0.0310309050222538

>  <r_j_QM_Dipole_Y_(debye)> (1)
-0.0608778567863579

>  <r_j_QM_Dipole_Z_(debye)> (1)
-0.079076937180261

>  <r_j_Lowest_Frequency_(cm-1)> (1)
47.9079116676037

>  <r_j_Highest_Frequency_(cm-1)> (1)
3055.23705584997

>  <r_j_2nd_Lowest_Frequency_(cm-1)> (1)
79.137612809991

>  <i_j_Num_Negative_Frequencies> (1)
0

>  <r_j_Zero_Point_Energy_(kcal/mol)> (1)
225.295105041337

>  <r_j_Entropy_(cal/mol/K)_298.15K_1.00E+00atm> (1)
119.228811598888

>  <r_j_Enthalpy_(kcal/mol)_298.15K_1.00E+00atm> (1)
10.0658451193108

>  <r_j_Free_Energy_(kcal/mol)_298.15K_1.00E+00atm> (1)
-25.4822250588978

>  <r_j_Internal_Energy_(kcal/mol)_298.15K_1.00E+00atm> (1)
9.47335953048353

>  <r_j_Heat_Capacity_(cal/mol/K)_298.15K_1.00E+00atm> (1)
58.186159738221

>  <r_j_ln(Q)_298.15K_1.00E+00atm> (1)
43.0090208765002

>  <r_j_Total_Internal_Energy_(au)_298.15K_1.00E+00atm> (1)
-472.784070850224

>  <r_j_Total_Enthalpy_(au)_298.15K_1.00E+00atm> (1)
-472.783126664332

>  <r_j_Total_Free_Energy_(au)_298.15K_1.00E+00atm> (1)
-472.83977612044

>  <r_lp_tautomer_probability> (1)
1

>  <r_epik_Ionization_Penalty> (1)
  0.0000

>  <r_epik_Ionization_Penalty_Charging> (1)
  0.0000

>  <r_epik_Ionization_Penalty_Neutral> (1)
  0.0000

>  <r_epik_State_Penalty> (1)
  0.0000

>  <r_epik_Charging_Adjusted_Penalty> (1)
0

>  <i_epik_Tot_Q> (1)
0

>  <i_epik_Tot_abs_Q> (1)
0

>  <s_lp_Force_Field> (1)
S-OPLS

>  <r_lp_Energy> (1)
7.381243

>  <b_lp_Chiralities_Consistent> (1)
1

$$$$
