528692_2-ethyl-1,3,4-trimethyl benzene
                    3D
 Schrodinger Suite 2021-3.
 27 27  0  0  1  0            999 V2000
   -0.5618    1.5135   -0.0343 C   0  0  0  0  0  0
   -0.0261    0.0697    0.0009 C   0  0  0  0  0  0
    1.4923    0.0077    0.0089 C   0  0  0  0  0  0
    2.1919   -0.0314   -1.2165 C   0  0  0  0  0  0
    3.5866   -0.0766   -1.1969 C   0  0  0  0  0  0
    4.2841   -0.0912    0.0057 C   0  0  0  0  0  0
    3.6116   -0.0475    1.2279 C   0  0  0  0  0  0
    2.2017    0.0173    1.2290 C   0  0  0  0  0  0
    1.4534    0.0684    2.5478 C   0  0  0  0  0  0
    4.4098   -0.0758    2.5131 C   0  0  0  0  0  0
    1.4688   -0.0420   -2.5461 C   0  0  0  0  0  0
   -1.6570    1.5299   -0.0473 H   0  0  0  0  0  0
   -0.2037    2.0428   -0.9228 H   0  0  0  0  0  0
   -0.2231    2.0820    0.8376 H   0  0  0  0  0  0
   -0.4326   -0.4457    0.8765 H   0  0  0  0  0  0
   -0.4157   -0.4735   -0.8656 H   0  0  0  0  0  0
    4.1336   -0.1080   -2.1359 H   0  0  0  0  0  0
    5.3703   -0.1367   -0.0041 H   0  0  0  0  0  0
    2.0839    0.4351    3.3594 H   0  0  0  0  0  0
    1.0951   -0.9269    2.8433 H   0  0  0  0  0  0
    0.5799    0.7228    2.5021 H   0  0  0  0  0  0
    4.0996   -0.8960    3.1707 H   0  0  0  0  0  0
    4.2982    0.8528    3.0857 H   0  0  0  0  0  0
    5.4754   -0.2044    2.3048 H   0  0  0  0  0  0
    2.1803    0.0156   -3.3742 H   0  0  0  0  0  0
    0.7746    0.7991   -2.6481 H   0  0  0  0  0  0
    0.8812   -0.9583   -2.6821 H   0  0  0  0  0  0
  1  2  1  0  0  0
  1 12  1  0  0  0
  1 13  1  0  0  0
  1 14  1  0  0  0
  2  3  1  0  0  0
  2 15  1  0  0  0
  2 16  1  0  0  0
  3  8  1  0  0  0
  3  4  2  0  0  0
  4  5  1  0  0  0
  4 11  1  0  0  0
  5  6  2  0  0  0
  5 17  1  0  0  0
  6  7  1  0  0  0
  6 18  1  0  0  0
  7  8  2  0  0  0
  7 10  1  0  0  0
  8  9  1  0  0  0
  9 19  1  0  0  0
  9 20  1  0  0  0
  9 21  1  0  0  0
 10 22  1  0  0  0
 10 23  1  0  0  0
 10 24  1  0  0  0
 11 25  1  0  0  0
 11 26  1  0  0  0
 11 27  1  0  0  0
M  END
>  <i_m_Spin_multiplicity> (1)
1

>  <s_j_Task> (1)
Single Point

>  <s_j_QM_Method> (1)
DFT(b3lyp-d3)

>  <s_j_QM_Basis> (1)
cc-pvtz(-f)

>  <i_j_Number_of_canonical_orbitals> (1)
389

>  <i_j_Geometry_convergence_category> (1)
3

>  <r_j_Gas_Phase_Energy> (1)
-428.984852142314

>  <r_j_Final_Energy> (1)
-428.984852142314

>  <r_j_HOMO> (1)
-0.228227044415201

>  <r_j_LUMO> (1)
-0.00554629055825374

>  <r_j_Polarizability> (1)
128.306231779058

>  <r_j_QM_Dipole_(debye)> (1)
0.572227932695692

>  <r_j_QM_Dipole_X_(debye)> (1)
-0.487113987565455

>  <r_j_QM_Dipole_Y_(debye)> (1)
-0.0112215246760021

>  <r_j_QM_Dipole_Z_(debye)> (1)
0.300064738780172

>  <r_j_Lowest_Frequency_(cm-1)> (1)
108.203516309657

>  <r_j_Highest_Frequency_(cm-1)> (1)
3126.32254442078

>  <r_j_2nd_Lowest_Frequency_(cm-1)> (1)
134.301597774962

>  <i_j_Num_Negative_Frequencies> (1)
0

>  <r_j_Zero_Point_Energy_(kcal/mol)> (1)
150.363071647077

>  <r_j_Entropy_(cal/mol/K)_298.15K_1.00E+00atm> (1)
100.381544103004

>  <r_j_Enthalpy_(kcal/mol)_298.15K_1.00E+00atm> (1)
7.62423642637667

>  <r_j_Free_Energy_(kcal/mol)_298.15K_1.00E+00atm> (1)
-22.304520947934

>  <r_j_Internal_Energy_(kcal/mol)_298.15K_1.00E+00atm> (1)
7.03175083754939

>  <r_j_Heat_Capacity_(cal/mol/K)_298.15K_1.00E+00atm> (1)
44.6468728408369

>  <r_j_ln(Q)_298.15K_1.00E+00atm> (1)
37.645676736344

>  <r_j_Total_Internal_Energy_(au)_298.15K_1.00E+00atm> (1)
-428.734027525301

>  <r_j_Total_Enthalpy_(au)_298.15K_1.00E+00atm> (1)
-428.733083339409

>  <r_j_Total_Free_Energy_(au)_298.15K_1.00E+00atm> (1)
-428.780777850496

>  <r_lp_tautomer_probability> (1)
1

>  <r_epik_Ionization_Penalty> (1)
  0.0000

>  <r_epik_Ionization_Penalty_Charging> (1)
  0.0000

>  <r_epik_Ionization_Penalty_Neutral> (1)
  0.0000

>  <r_epik_State_Penalty> (1)
  0.0000

>  <r_epik_Charging_Adjusted_Penalty> (1)
0

>  <i_epik_Tot_Q> (1)
0

>  <i_epik_Tot_abs_Q> (1)
0

>  <s_lp_Force_Field> (1)
S-OPLS

>  <r_lp_Energy> (1)
8.87816

>  <b_lp_Chiralities_Consistent> (1)
1

$$$$
