528971_1-Heptacosene
                    3D
 Schrodinger Suite 2021-3.
 81 80  0  0  1  0            999 V2000
  -10.2192    7.6668   -3.9184 C   0  0  0  0  0  0
   -8.7425    7.5252   -3.5376 C   0  0  0  0  0  0
   -8.4334    8.0778   -2.1389 C   0  0  0  0  0  0
   -6.9468    8.0349   -1.7525 C   0  0  0  0  0  0
   -6.3652    6.6212   -1.6229 C   0  0  0  0  0  0
   -4.8924    6.6088   -1.1981 C   0  0  0  0  0  0
   -4.3061    5.1966   -1.0931 C   0  0  0  0  0  0
   -2.8204    5.1741   -0.7175 C   0  0  0  0  0  0
   -2.2386    3.7578   -0.6450 C   0  0  0  0  0  0
   -0.7403    3.7321   -0.3157 C   0  0  0  0  0  0
   -0.1081    2.3315   -0.3488 C   0  0  0  0  0  0
   -0.5825    1.3944    0.7722 C   0  0  0  0  0  0
   -0.0302   -0.0364    0.6698 C   0  0  0  0  0  0
    1.4970   -0.1405    0.7659 C   0  0  0  0  0  0
    2.0117   -1.5835    0.7095 C   0  0  0  0  0  0
    3.5413   -1.6744    0.7170 C   0  0  0  0  0  0
    4.0778   -3.1063    0.6137 C   0  0  0  0  0  0
    5.6076   -3.1669    0.5490 C   0  0  0  0  0  0
    6.1679   -4.5860    0.4052 C   0  0  0  0  0  0
    7.6951   -4.6127    0.2826 C   0  0  0  0  0  0
    8.2811   -6.0178    0.1089 C   0  0  0  0  0  0
    9.8044   -6.0092   -0.0563 C   0  0  0  0  0  0
   10.4177   -7.4003   -0.2467 C   0  0  0  0  0  0
   11.9374   -7.3538   -0.4387 C   0  0  0  0  0  0
   12.5670   -8.7348   -0.6322 C   0  0  0  0  0  0
   14.0602   -8.7528   -0.8370 C   0  0  0  0  0  0
   14.8754   -7.6975   -0.8670 C   0  0  0  0  0  0
  -10.4183    7.2649   -4.9174 H   0  0  0  0  0  0
  -10.5295    8.7181   -3.9132 H   0  0  0  0  0  0
  -10.8613    7.1309   -3.2096 H   0  0  0  0  0  0
   -8.4559    6.4678   -3.5925 H   0  0  0  0  0  0
   -8.1189    8.0484   -4.2759 H   0  0  0  0  0  0
   -8.7856    9.1172   -2.0861 H   0  0  0  0  0  0
   -9.0200    7.5215   -1.3932 H   0  0  0  0  0  0
   -6.3642    8.5982   -2.4960 H   0  0  0  0  0  0
   -6.8099    8.5624   -0.7987 H   0  0  0  0  0  0
   -6.9608    6.0494   -0.8962 H   0  0  0  0  0  0
   -6.4609    6.0889   -2.5782 H   0  0  0  0  0  0
   -4.3032    7.1930   -1.9198 H   0  0  0  0  0  0
   -4.7838    7.1235   -0.2326 H   0  0  0  0  0  0
   -4.8788    4.6180   -0.3541 H   0  0  0  0  0  0
   -4.4421    4.6775   -2.0529 H   0  0  0  0  0  0
   -2.2524    5.7628   -1.4523 H   0  0  0  0  0  0
   -2.6783    5.6787    0.2489 H   0  0  0  0  0  0
   -2.7999    3.1788    0.1000 H   0  0  0  0  0  0
   -2.4016    3.2512   -1.6076 H   0  0  0  0  0  0
   -0.2136    4.3750   -1.0341 H   0  0  0  0  0  0
   -0.5748    4.1848    0.6726 H   0  0  0  0  0  0
   -0.3168    1.8646   -1.3229 H   0  0  0  0  0  0
    0.9816    2.4397   -0.2923 H   0  0  0  0  0  0
   -0.3025    1.8278    1.7435 H   0  0  0  0  0  0
   -1.6782    1.3430    0.7677 H   0  0  0  0  0  0
   -0.4799   -0.6504    1.4621 H   0  0  0  0  0  0
   -0.3599   -0.4807   -0.2806 H   0  0  0  0  0  0
    1.9598    0.4284   -0.0508 H   0  0  0  0  0  0
    1.8376    0.3347    1.6974 H   0  0  0  0  0  0
    1.6027   -2.1552    1.5548 H   0  0  0  0  0  0
    1.6261   -2.0690   -0.1988 H   0  0  0  0  0  0
    3.9388   -1.0820   -0.1199 H   0  0  0  0  0  0
    3.9315   -1.2032    1.6307 H   0  0  0  0  0  0
    3.7205   -3.6969    1.4694 H   0  0  0  0  0  0
    3.6585   -3.5866   -0.2821 H   0  0  0  0  0  0
    5.9543   -2.5570   -0.2979 H   0  0  0  0  0  0
    6.0300   -2.6982    1.4495 H   0  0  0  0  0  0
    5.8561   -5.1944    1.2661 H   0  0  0  0  0  0
    5.7244   -5.0638   -0.4802 H   0  0  0  0  0  0
    7.9971   -3.9894   -0.5715 H   0  0  0  0  0  0
    8.1398   -4.1410    1.1707 H   0  0  0  0  0  0
    8.0079   -6.6398    0.9733 H   0  0  0  0  0  0
    7.8226   -6.4982   -0.7674 H   0  0  0  0  0  0
   10.0692   -5.3783   -0.9171 H   0  0  0  0  0  0
   10.2621   -5.5286    0.8204 H   0  0  0  0  0  0
   10.1746   -8.0300    0.6211 H   0  0  0  0  0  0
    9.9532   -7.8881   -1.1156 H   0  0  0  0  0  0
   12.1719   -6.7232   -1.3065 H   0  0  0  0  0  0
   12.3977   -6.8627    0.4288 H   0  0  0  0  0  0
   12.3255   -9.3716    0.2330 H   0  0  0  0  0  0
   12.0916   -9.2364   -1.4895 H   0  0  0  0  0  0
   14.4912   -9.7457   -0.9725 H   0  0  0  0  0  0
   14.5177   -6.6803   -0.7398 H   0  0  0  0  0  0
   15.9435   -7.8165   -1.0222 H   0  0  0  0  0  0
  1  2  1  0  0  0
  1 28  1  0  0  0
  1 29  1  0  0  0
  1 30  1  0  0  0
  2  3  1  0  0  0
  2 31  1  0  0  0
  2 32  1  0  0  0
  3  4  1  0  0  0
  3 33  1  0  0  0
  3 34  1  0  0  0
  4  5  1  0  0  0
  4 35  1  0  0  0
  4 36  1  0  0  0
  5  6  1  0  0  0
  5 37  1  0  0  0
  5 38  1  0  0  0
  6  7  1  0  0  0
  6 39  1  0  0  0
  6 40  1  0  0  0
  7  8  1  0  0  0
  7 41  1  0  0  0
  7 42  1  0  0  0
  8  9  1  0  0  0
  8 43  1  0  0  0
  8 44  1  0  0  0
  9 10  1  0  0  0
  9 45  1  0  0  0
  9 46  1  0  0  0
 10 11  1  0  0  0
 10 47  1  0  0  0
 10 48  1  0  0  0
 11 12  1  0  0  0
 11 49  1  0  0  0
 11 50  1  0  0  0
 12 13  1  0  0  0
 12 51  1  0  0  0
 12 52  1  0  0  0
 13 14  1  0  0  0
 13 53  1  0  0  0
 13 54  1  0  0  0
 14 15  1  0  0  0
 14 55  1  0  0  0
 14 56  1  0  0  0
 15 16  1  0  0  0
 15 57  1  0  0  0
 15 58  1  0  0  0
 16 17  1  0  0  0
 16 59  1  0  0  0
 16 60  1  0  0  0
 17 18  1  0  0  0
 17 61  1  0  0  0
 17 62  1  0  0  0
 18 19  1  0  0  0
 18 63  1  0  0  0
 18 64  1  0  0  0
 19 20  1  0  0  0
 19 65  1  0  0  0
 19 66  1  0  0  0
 20 21  1  0  0  0
 20 67  1  0  0  0
 20 68  1  0  0  0
 21 22  1  0  0  0
 21 69  1  0  0  0
 21 70  1  0  0  0
 22 23  1  0  0  0
 22 71  1  0  0  0
 22 72  1  0  0  0
 23 24  1  0  0  0
 23 73  1  0  0  0
 23 74  1  0  0  0
 24 25  1  0  0  0
 24 75  1  0  0  0
 24 76  1  0  0  0
 25 26  1  0  0  0
 25 77  1  0  0  0
 25 78  1  0  0  0
 26 27  2  0  0  0
 26 79  1  0  0  0
 27 80  1  0  0  0
 27 81  1  0  0  0
M  END
>  <i_m_Spin_multiplicity> (1)
1

>  <s_j_Task> (1)
Single Point

>  <s_j_QM_Method> (1)
DFT(b3lyp-d3)

>  <s_j_QM_Basis> (1)
cc-pvtz(-f)

>  <i_j_Number_of_canonical_orbitals> (1)
1098

>  <i_j_Geometry_convergence_category> (1)
3

>  <r_j_Gas_Phase_Energy> (1)
-1061.8586326452

>  <r_j_Final_Energy> (1)
-1061.8586326452

>  <r_j_HOMO> (1)
-0.254592322688984

>  <r_j_LUMO> (1)
-0.0290154253239226

>  <r_j_Polarizability> (1)
336.426187248006

>  <r_j_QM_Dipole_(debye)> (1)
0.429655141636461

>  <r_j_QM_Dipole_X_(debye)> (1)
-0.401883733808094

>  <r_j_QM_Dipole_Y_(debye)> (1)
-0.13842522209766

>  <r_j_QM_Dipole_Z_(debye)> (1)
0.0627013805456144

>  <r_j_Lowest_Frequency_(cm-1)> (1)
18.6875685268274

>  <r_j_Highest_Frequency_(cm-1)> (1)
3176.61703957182

>  <r_j_2nd_Lowest_Frequency_(cm-1)> (1)
25.7686195558222

>  <i_j_Num_Negative_Frequencies> (1)
0

>  <r_j_Zero_Point_Energy_(kcal/mol)> (1)
479.176184518807

>  <r_j_Entropy_(cal/mol/K)_298.15K_1.00E+00atm> (1)
199.756121451785

>  <r_j_Enthalpy_(kcal/mol)_298.15K_1.00E+00atm> (1)
21.1868696463139

>  <r_j_Free_Energy_(kcal/mol)_298.15K_1.00E+00atm> (1)
-38.3704179645358

>  <r_j_Internal_Energy_(kcal/mol)_298.15K_1.00E+00atm> (1)
20.5943840574867

>  <r_j_Heat_Capacity_(cal/mol/K)_298.15K_1.00E+00atm> (1)
126.272993284692

>  <r_j_ln(Q)_298.15K_1.00E+00atm> (1)
64.7617742745163

>  <r_j_Total_Internal_Energy_(au)_298.15K_1.00E+00atm> (1)
-1061.06219754347

>  <r_j_Total_Enthalpy_(au)_298.15K_1.00E+00atm> (1)
-1061.06125335758

>  <r_j_Total_Free_Energy_(au)_298.15K_1.00E+00atm> (1)
-1061.15616393735

>  <r_lp_tautomer_probability> (1)
1

>  <r_epik_Ionization_Penalty> (1)
  0.0000

>  <r_epik_Ionization_Penalty_Charging> (1)
  0.0000

>  <r_epik_Ionization_Penalty_Neutral> (1)
  0.0000

>  <r_epik_State_Penalty> (1)
  0.0000

>  <r_epik_Charging_Adjusted_Penalty> (1)
0

>  <i_epik_Tot_Q> (1)
0

>  <i_epik_Tot_abs_Q> (1)
0

>  <s_lp_Force_Field> (1)
S-OPLS

>  <r_lp_Energy> (1)
11.398261

>  <b_lp_Chiralities_Consistent> (1)
1

$$$$
