529886_3-ethylnonane
                    3D
 Schrodinger Suite 2021-3.
 35 34  0  0  1  0            999 V2000
   -4.1883    3.0333   -0.0730 C   0  0  0  0  0  0
   -2.6585    2.9602   -0.0794 C   0  0  0  0  0  0
   -2.1249    1.5257    0.0100 C   0  0  0  0  0  0
   -0.5945    1.4447    0.0103 C   0  0  0  0  0  0
   -0.0576    0.0113    0.1025 C   0  0  0  0  0  0
    1.4759   -0.0460    0.1303 C   0  0  0  0  0  0
    2.0934   -1.4587    0.0694 C   0  0  0  0  0  0
    1.6668   -2.3112    1.2837 C   0  0  0  0  0  0
    2.1140   -3.7775    1.2398 C   0  0  0  0  0  0
    3.6306   -1.3928   -0.0568 C   0  0  0  0  0  0
    4.1516   -0.6915   -1.3173 C   0  0  0  0  0  0
   -4.5430    4.0673   -0.1374 H   0  0  0  0  0  0
   -4.5995    2.5960    0.8442 H   0  0  0  0  0  0
   -4.6128    2.4814   -0.9196 H   0  0  0  0  0  0
   -2.2708    3.4335   -0.9920 H   0  0  0  0  0  0
   -2.2584    3.5466    0.7591 H   0  0  0  0  0  0
   -2.5150    1.0501    0.9215 H   0  0  0  0  0  0
   -2.5213    0.9376   -0.8304 H   0  0  0  0  0  0
   -0.2049    1.9222   -0.9002 H   0  0  0  0  0  0
   -0.2007    2.0332    0.8516 H   0  0  0  0  0  0
   -0.4757   -0.4637    0.9986 H   0  0  0  0  0  0
   -0.4281   -0.5722   -0.7529 H   0  0  0  0  0  0
    1.8469    0.5429   -0.7171 H   0  0  0  0  0  0
    1.8426    0.4631    1.0345 H   0  0  0  0  0  0
    1.7067   -1.9538   -0.8370 H   0  0  0  0  0  0
    2.0473   -1.8360    2.1997 H   0  0  0  0  0  0
    0.5746   -2.2921    1.3653 H   0  0  0  0  0  0
    1.6774   -4.3422    2.0700 H   0  0  0  0  0  0
    3.2005   -3.8845    1.3104 H   0  0  0  0  0  0
    1.7933   -4.2569    0.3074 H   0  0  0  0  0  0
    4.0371   -0.8968    0.8366 H   0  0  0  0  0  0
    4.0325   -2.4119   -0.0458 H   0  0  0  0  0  0
    5.2396   -0.7875   -1.3942 H   0  0  0  0  0  0
    3.9186    0.3774   -1.3262 H   0  0  0  0  0  0
    3.7148   -1.1338   -2.2205 H   0  0  0  0  0  0
  1  2  1  0  0  0
  1 12  1  0  0  0
  1 13  1  0  0  0
  1 14  1  0  0  0
  2  3  1  0  0  0
  2 15  1  0  0  0
  2 16  1  0  0  0
  3  4  1  0  0  0
  3 17  1  0  0  0
  3 18  1  0  0  0
  4  5  1  0  0  0
  4 19  1  0  0  0
  4 20  1  0  0  0
  5  6  1  0  0  0
  5 21  1  0  0  0
  5 22  1  0  0  0
  6  7  1  0  0  0
  6 23  1  0  0  0
  6 24  1  0  0  0
  7  8  1  0  0  0
  7 10  1  0  0  0
  7 25  1  0  0  0
  8  9  1  0  0  0
  8 26  1  0  0  0
  8 27  1  0  0  0
  9 28  1  0  0  0
  9 29  1  0  0  0
  9 30  1  0  0  0
 10 11  1  0  0  0
 10 31  1  0  0  0
 10 32  1  0  0  0
 11 33  1  0  0  0
 11 34  1  0  0  0
 11 35  1  0  0  0
M  END
>  <i_m_Spin_multiplicity> (1)
1

>  <s_j_Task> (1)
Single Point

>  <s_j_QM_Method> (1)
DFT(b3lyp-d3)

>  <s_j_QM_Basis> (1)
cc-pvtz(-f)

>  <i_j_Number_of_canonical_orbitals> (1)
465

>  <i_j_Geometry_convergence_category> (1)
3

>  <r_j_Gas_Phase_Energy> (1)
-433.826837212159

>  <r_j_Final_Energy> (1)
-433.826837212159

>  <r_j_HOMO> (1)
-0.295151229453961

>  <r_j_LUMO> (1)
0.0201133751910364

>  <r_j_Polarizability> (1)
136.493918691678

>  <r_j_QM_Dipole_(debye)> (1)
0.0214372727788704

>  <r_j_QM_Dipole_X_(debye)> (1)
0.00867343194116981

>  <r_j_QM_Dipole_Y_(debye)> (1)
-0.000785252959543854

>  <r_j_QM_Dipole_Z_(debye)> (1)
0.0195885584040052

>  <r_j_Lowest_Frequency_(cm-1)> (1)
62.0477571186801

>  <r_j_Highest_Frequency_(cm-1)> (1)
3058.04759331464

>  <r_j_2nd_Lowest_Frequency_(cm-1)> (1)
75.8361818825886

>  <i_j_Num_Negative_Frequencies> (1)
0

>  <r_j_Zero_Point_Energy_(kcal/mol)> (1)
207.553759759828

>  <r_j_Entropy_(cal/mol/K)_298.15K_1.00E+00atm> (1)
114.927897752014

>  <r_j_Enthalpy_(kcal/mol)_298.15K_1.00E+00atm> (1)
9.37843923495548

>  <r_j_Free_Energy_(kcal/mol)_298.15K_1.00E+00atm> (1)
-24.8873134798074

>  <r_j_Internal_Energy_(kcal/mol)_298.15K_1.00E+00atm> (1)
8.78595364612821

>  <r_j_Heat_Capacity_(cal/mol/K)_298.15K_1.00E+00atm> (1)
53.0572242583648

>  <r_j_ln(Q)_298.15K_1.00E+00atm> (1)
42.0049262785744

>  <r_j_Total_Internal_Energy_(au)_298.15K_1.00E+00atm> (1)
-433.482077931624

>  <r_j_Total_Enthalpy_(au)_298.15K_1.00E+00atm> (1)
-433.481133745732

>  <r_j_Total_Free_Energy_(au)_298.15K_1.00E+00atm> (1)
-433.535739698874

>  <r_lp_tautomer_probability> (1)
1

>  <r_epik_Ionization_Penalty> (1)
  0.0000

>  <r_epik_Ionization_Penalty_Charging> (1)
  0.0000

>  <r_epik_Ionization_Penalty_Neutral> (1)
  0.0000

>  <r_epik_State_Penalty> (1)
  0.0000

>  <r_epik_Charging_Adjusted_Penalty> (1)
0

>  <i_epik_Tot_Q> (1)
0

>  <i_epik_Tot_abs_Q> (1)
0

>  <s_lp_Force_Field> (1)
S-OPLS

>  <r_lp_Energy> (1)
6.994792

>  <b_lp_Chiralities_Consistent> (1)
1

$$$$
