530173_1-decene, dimer, hydrogenated
                    3D
 Schrodinger Suite 2021-3.
 62 61  0  0  1  0            999 V2000
   -2.3549   -7.5088    5.4373 C   0  0  0  0  0  0
   -2.8003   -6.0496    5.3037 C   0  0  0  0  0  0
   -2.2462   -5.3637    4.0491 C   0  0  0  0  0  0
   -2.6832   -3.9008    3.9124 C   0  0  0  0  0  0
   -2.1307   -3.2104    2.6600 C   0  0  0  0  0  0
   -2.5566   -1.7404    2.5462 C   0  0  0  0  0  0
   -2.0851   -1.0420    1.2611 C   0  0  0  0  0  0
   -0.5550   -0.9683    1.1274 C   0  0  0  0  0  0
   -0.0355   -0.0029    0.0385 C   0  0  0  0  0  0
   -0.6527   -0.3504   -1.3275 C   0  0  0  0  0  0
    1.5218    0.0258   -0.0142 C   0  0  0  0  0  0
    2.1379    0.3766    1.3513 C   0  0  0  0  0  0
    2.0434    0.9869   -1.1061 C   0  0  0  0  0  0
    3.5738    1.0598   -1.2369 C   0  0  0  0  0  0
    4.0491    1.7425   -2.5291 C   0  0  0  0  0  0
    3.6279    3.2123   -2.6610 C   0  0  0  0  0  0
    4.1882    3.8868   -3.9185 C   0  0  0  0  0  0
    3.7570    5.3496   -4.0733 C   0  0  0  0  0  0
    4.3195    6.0199   -5.3326 C   0  0  0  0  0  0
    3.8798    7.4791   -5.4843 C   0  0  0  0  0  0
   -2.7642   -7.9744    6.3400 H   0  0  0  0  0  0
   -1.2625   -7.5842    5.4890 H   0  0  0  0  0  0
   -2.6850   -8.1022    4.5767 H   0  0  0  0  0  0
   -3.8977   -5.9996    5.2876 H   0  0  0  0  0  0
   -2.4846   -5.4858    6.1922 H   0  0  0  0  0  0
   -1.1479   -5.4160    4.0623 H   0  0  0  0  0  0
   -2.5641   -5.9244    3.1582 H   0  0  0  0  0  0
   -3.7814   -3.8487    3.9021 H   0  0  0  0  0  0
   -2.3632   -3.3426    4.8042 H   0  0  0  0  0  0
   -1.0351   -3.2811    2.6670 H   0  0  0  0  0  0
   -2.4643   -3.7552    1.7647 H   0  0  0  0  0  0
   -3.6523   -1.6832    2.6018 H   0  0  0  0  0  0
   -2.1790   -1.1882    3.4190 H   0  0  0  0  0  0
   -2.5186   -1.5636    0.3987 H   0  0  0  0  0  0
   -2.4949   -0.0225    1.2399 H   0  0  0  0  0  0
   -0.1549   -0.6654    2.1014 H   0  0  0  0  0  0
   -0.1499   -1.9706    0.9296 H   0  0  0  0  0  0
   -0.3696    1.0118    0.3112 H   0  0  0  0  0  0
   -0.3160   -1.3397   -1.6628 H   0  0  0  0  0  0
   -0.3853    0.3737   -2.1001 H   0  0  0  0  0  0
   -1.7440   -0.3706   -1.2776 H   0  0  0  0  0  0
    1.8555   -0.9899   -0.2834 H   0  0  0  0  0  0
    1.8043    1.3685    1.6819 H   0  0  0  0  0  0
    3.2294    0.3925    1.3031 H   0  0  0  0  0  0
    1.8663   -0.3433    2.1264 H   0  0  0  0  0  0
    1.6458    0.6794   -2.0796 H   0  0  0  0  0  0
    1.6377    1.9901   -0.9137 H   0  0  0  0  0  0
    4.0052    1.5912   -0.3794 H   0  0  0  0  0  0
    3.9835    0.0406   -1.2029 H   0  0  0  0  0  0
    5.1448    1.6817   -2.5820 H   0  0  0  0  0  0
    3.6719    1.1812   -3.3963 H   0  0  0  0  0  0
    2.5327    3.2863   -2.6737 H   0  0  0  0  0  0
    3.9594    3.7660   -1.7704 H   0  0  0  0  0  0
    5.2863    3.8312   -3.9028 H   0  0  0  0  0  0
    3.8704    3.3199   -4.8055 H   0  0  0  0  0  0
    2.6589    5.4055   -4.0924 H   0  0  0  0  0  0
    4.0725    5.9190   -3.1870 H   0  0  0  0  0  0
    5.4166    5.9664   -5.3106 H   0  0  0  0  0  0
    4.0062    5.4475   -6.2165 H   0  0  0  0  0  0
    4.2951    7.9334   -6.3900 H   0  0  0  0  0  0
    4.2077    8.0808   -4.6287 H   0  0  0  0  0  0
    2.7879    7.5576   -5.5424 H   0  0  0  0  0  0
  1  2  1  0  0  0
  1 21  1  0  0  0
  1 22  1  0  0  0
  1 23  1  0  0  0
  2  3  1  0  0  0
  2 24  1  0  0  0
  2 25  1  0  0  0
  3  4  1  0  0  0
  3 26  1  0  0  0
  3 27  1  0  0  0
  4  5  1  0  0  0
  4 28  1  0  0  0
  4 29  1  0  0  0
  5  6  1  0  0  0
  5 30  1  0  0  0
  5 31  1  0  0  0
  6  7  1  0  0  0
  6 32  1  0  0  0
  6 33  1  0  0  0
  7  8  1  0  0  0
  7 34  1  0  0  0
  7 35  1  0  0  0
  8  9  1  0  0  0
  8 36  1  0  0  0
  8 37  1  0  0  0
  9 10  1  0  0  0
  9 11  1  0  0  0
  9 38  1  0  0  0
 10 39  1  0  0  0
 10 40  1  0  0  0
 10 41  1  0  0  0
 11 12  1  0  0  0
 11 13  1  0  0  0
 11 42  1  0  0  0
 12 43  1  0  0  0
 12 44  1  0  0  0
 12 45  1  0  0  0
 13 14  1  0  0  0
 13 46  1  0  0  0
 13 47  1  0  0  0
 14 15  1  0  0  0
 14 48  1  0  0  0
 14 49  1  0  0  0
 15 16  1  0  0  0
 15 50  1  0  0  0
 15 51  1  0  0  0
 16 17  1  0  0  0
 16 52  1  0  0  0
 16 53  1  0  0  0
 17 18  1  0  0  0
 17 54  1  0  0  0
 17 55  1  0  0  0
 18 19  1  0  0  0
 18 56  1  0  0  0
 18 57  1  0  0  0
 19 20  1  0  0  0
 19 58  1  0  0  0
 19 59  1  0  0  0
 20 60  1  0  0  0
 20 61  1  0  0  0
 20 62  1  0  0  0
M  END
>  <i_m_Spin_multiplicity> (1)
1

>  <s_j_Task> (1)
Single Point

>  <s_j_QM_Method> (1)
DFT(b3lyp-d3)

>  <s_j_QM_Basis> (1)
cc-pvtz(-f)

>  <i_j_Number_of_canonical_orbitals> (1)
832

>  <i_j_Geometry_convergence_category> (1)
1

>  <r_j_Gas_Phase_Energy> (1)
-787.788546317154

>  <r_j_Final_Energy> (1)
-787.788546317154

>  <r_j_HOMO> (1)
-0.260695860384025

>  <r_j_LUMO> (1)
-0.0243778156767363

>  <r_j_Polarizability> (1)
248.411040153481

>  <r_j_QM_Dipole_(debye)> (1)
0.00034755838406275

>  <r_j_QM_Dipole_X_(debye)> (1)
-0.000100229083596302

>  <r_j_QM_Dipole_Y_(debye)> (1)
-0.000241446466648453

>  <r_j_QM_Dipole_Z_(debye)> (1)
0.000229029615719743

>  <r_j_Lowest_Frequency_(cm-1)> (1)
26.0585917909864

>  <r_j_Highest_Frequency_(cm-1)> (1)
3072.24449788096

>  <r_j_2nd_Lowest_Frequency_(cm-1)> (1)
28.3645178093338

>  <i_j_Num_Negative_Frequencies> (1)
0

>  <r_j_Zero_Point_Energy_(kcal/mol)> (1)
368.408948109643

>  <r_j_Entropy_(cal/mol/K)_298.15K_1.00E+00atm> (1)
163.236091418339

>  <r_j_Enthalpy_(kcal/mol)_298.15K_1.00E+00atm> (1)
16.1601618623399

>  <r_j_Free_Energy_(kcal/mol)_298.15K_1.00E+00atm> (1)
-32.5086787940378

>  <r_j_Internal_Energy_(kcal/mol)_298.15K_1.00E+00atm> (1)
15.5676762735126

>  <r_j_Heat_Capacity_(cal/mol/K)_298.15K_1.00E+00atm> (1)
96.1203690699687

>  <r_j_ln(Q)_298.15K_1.00E+00atm> (1)
54.868302971526

>  <r_j_Total_Internal_Energy_(au)_298.15K_1.00E+00atm> (1)
-787.176640612554

>  <r_j_Total_Enthalpy_(au)_298.15K_1.00E+00atm> (1)
-787.175696426662

>  <r_j_Total_Free_Energy_(au)_298.15K_1.00E+00atm> (1)
-787.253255161603

>  <r_lp_tautomer_probability> (1)
1

>  <r_epik_Ionization_Penalty> (1)
  0.0000

>  <r_epik_Ionization_Penalty_Charging> (1)
  0.0000

>  <r_epik_Ionization_Penalty_Neutral> (1)
  0.0000

>  <r_epik_State_Penalty> (1)
  0.0000

>  <r_epik_Charging_Adjusted_Penalty> (1)
0

>  <i_epik_Tot_Q> (1)
0

>  <i_epik_Tot_abs_Q> (1)
0

>  <s_lp_Force_Field> (1)
S-OPLS

>  <r_lp_Energy> (1)
14.716133

>  <b_lp_Chiralities_Consistent> (1)
1

$$$$
