53639106_Dichloronitroaniline
                    3D
 Schrodinger Suite 2021-3.
 15 15  0  0  1  0            999 V2000
   -2.8825    0.0869   -0.0001 C   0  0  0  0  0  0
   -2.0616    1.2171   -0.0001 C   0  0  0  0  0  0
   -0.6809    1.0958    0.0000 C   0  0  0  0  0  0
   -0.0013   -0.1645    0.0000 C   0  0  0  0  0  0
   -0.8663   -1.3016    0.0000 C   0  0  0  0  0  0
   -2.2425   -1.1477    0.0000 C   0  0  0  0  0  0
   -3.2592   -2.6168    0.0001 Cl  0  0  0  0  0  0
    1.3649   -0.0941    0.0000 N   0  5  0  0  0  0
    2.1091   -1.2154   -0.0001 N   0  3  1  0  0  0
    3.3439   -1.0330    0.0000 O   0  0  0  0  0  0
    1.6318   -2.3832   -0.0001 O   0  5  0  0  0  0
    0.2537    2.5996    0.0001 Cl  0  0  0  0  0  0
   -3.9627    0.1684   -0.0001 H   0  0  0  0  0  0
   -2.5016    2.2091   -0.0001 H   0  0  0  0  0  0
   -0.4158   -2.2803    0.0000 H   0  0  0  0  0  0
  1  6  1  0  0  0
  1  2  2  0  0  0
  1 13  1  0  0  0
  2  3  1  0  0  0
  2 14  1  0  0  0
  3  4  2  0  0  0
  3 12  1  0  0  0
  4  5  1  0  0  0
  4  8  1  0  0  0
  5  6  2  0  0  0
  5 15  1  0  0  0
  6  7  1  0  0  0
  8  9  1  0  0  0
  9 10  2  0  0  0
  9 11  1  0  0  0
M  END
>  <i_m_Spin_multiplicity> (1)
1

>  <s_j_Task> (1)
Single Point

>  <s_j_QM_Method> (1)
DFT(b3lyp-d3)

>  <s_j_QM_Basis> (1)
cc-pvtz(-f)

>  <i_j_Number_of_canonical_orbitals> (1)
306

>  <i_j_Geometry_convergence_category> (1)
3

>  <r_j_Gas_Phase_Energy> (1)
-1410.98347576174

>  <r_j_Final_Energy> (1)
-1410.98347576174

>  <r_j_HOMO> (1)
-0.074355565561854

>  <r_j_LUMO> (1)
0.0873639055497401

>  <r_j_Polarizability> (1)
130.659339735032

>  <r_j_QM_Dipole_(debye)> (1)
7.329061900034

>  <r_j_QM_Dipole_X_(debye)> (1)
-7.00877667339751

>  <r_j_QM_Dipole_Y_(debye)> (1)
2.14294140765731

>  <r_j_QM_Dipole_Z_(debye)> (1)
-1.77919743531309e-05

>  <r_j_Lowest_Frequency_(cm-1)> (1)
52.262850042045

>  <r_j_Highest_Frequency_(cm-1)> (1)
3228.61041294973

>  <r_j_2nd_Lowest_Frequency_(cm-1)> (1)
98.6458399445601

>  <i_j_Num_Negative_Frequencies> (1)
0

>  <r_j_Zero_Point_Energy_(kcal/mol)> (1)
54.223899272984

>  <r_j_Entropy_(cal/mol/K)_298.15K_1.00E+00atm> (1)
100.43912633273

>  <r_j_Enthalpy_(kcal/mol)_298.15K_1.00E+00atm> (1)
6.8555824962294

>  <r_j_Free_Energy_(kcal/mol)_298.15K_1.00E+00atm> (1)
-23.0903430198741

>  <r_j_Internal_Energy_(kcal/mol)_298.15K_1.00E+00atm> (1)
6.26309690740213

>  <r_j_Heat_Capacity_(cal/mol/K)_298.15K_1.00E+00atm> (1)
36.6773566033993

>  <r_j_ln(Q)_298.15K_1.00E+00atm> (1)
38.9719909737847

>  <r_j_Total_Internal_Energy_(au)_298.15K_1.00E+00atm> (1)
-1410.88708359705

>  <r_j_Total_Enthalpy_(au)_298.15K_1.00E+00atm> (1)
-1410.88613941115

>  <r_j_Total_Free_Energy_(au)_298.15K_1.00E+00atm> (1)
-1410.93386128142

>  <r_epik_Ionization_Penalty> (1)
  0.0009

>  <r_epik_Ionization_Penalty_Charging> (1)
  0.0009

>  <r_epik_Ionization_Penalty_Neutral> (1)
  0.0000

>  <r_epik_State_Penalty> (1)
  0.0006

>  <r_epik_Charging_Adjusted_Penalty> (1)
0.00147871

>  <i_epik_Tot_Q> (1)
-1

>  <i_epik_Tot_abs_Q> (1)
3

>  <s_lp_Force_Field> (1)
S-OPLS

>  <r_lp_Energy> (1)
47.1877

>  <b_lp_Chiralities_Consistent> (1)
1

$$$$
