54280271_Hexacosenoic acid
                    3D
 Schrodinger Suite 2021-3.
 77 76  0  0  1  0            999 V2000
   -8.0100    7.6666    6.5138 C   0  0  0  0  0  0
   -6.9976    7.0866    5.5219 C   0  0  0  0  0  0
   -7.6393    6.6086    4.2136 C   0  0  0  0  0  0
   -6.6239    6.0340    3.2197 C   0  0  0  0  0  0
   -7.2525    5.5653    1.9001 C   0  0  0  0  0  0
   -6.2304    5.0721    0.8633 C   0  0  0  0  0  0
   -5.5286    3.7593    1.2356 C   0  0  0  0  0  0
   -4.4268    3.3699    0.2358 C   0  0  0  0  0  0
   -3.7199    2.0911    0.5938 C   0  0  0  0  0  0
   -3.4556    1.0880   -0.2464 C   0  0  0  0  0  0
   -2.6518   -0.1386    0.0954 C   0  0  0  0  0  0
   -1.1862   -0.0037   -0.3643 C   0  0  0  0  0  0
   -0.3628   -1.2864   -0.1810 C   0  0  0  0  0  0
    1.1535   -1.0699   -0.3084 C   0  0  0  0  0  0
    1.6090   -0.4598   -1.6408 C   0  0  0  0  0  0
    3.1285   -0.2686   -1.7203 C   0  0  0  0  0  0
    3.5874    0.4822   -2.9780 C   0  0  0  0  0  0
    5.1016    0.7458   -3.0281 C   0  0  0  0  0  0
    5.9501   -0.4944   -3.3509 C   0  0  0  0  0  0
    7.4575   -0.2947   -3.1235 C   0  0  0  0  0  0
    8.0878    0.8610   -3.9122 C   0  0  0  0  0  0
    9.6056    0.9709   -3.7183 C   0  0  0  0  0  0
   10.2234    2.1979   -4.3964 C   0  0  0  0  0  0
   11.7428    2.2978   -4.2201 C   0  0  0  0  0  0
   12.3348    3.5433   -4.8865 C   0  0  0  0  0  0
   12.2506    3.5601   -6.4630 C   0  0  0  0  0  0
   12.6129    4.6387   -6.9885 O   0  0  0  0  0  0
   11.8492    2.4954   -7.0084 O   0  5  0  0  0  0
   -7.5239    8.0005    7.4366 H   0  0  0  0  0  0
   -8.7668    6.9216    6.7857 H   0  0  0  0  0  0
   -8.5350    8.5271    6.0829 H   0  0  0  0  0  0
   -6.2333    7.8419    5.2929 H   0  0  0  0  0  0
   -6.4632    6.2481    5.9892 H   0  0  0  0  0  0
   -8.4020    5.8489    4.4385 H   0  0  0  0  0  0
   -8.1761    7.4463    3.7451 H   0  0  0  0  0  0
   -5.8613    6.7958    3.0015 H   0  0  0  0  0  0
   -6.0911    5.2019    3.6980 H   0  0  0  0  0  0
   -7.9825    4.7687    2.1045 H   0  0  0  0  0  0
   -7.8249    6.3978    1.4686 H   0  0  0  0  0  0
   -6.7311    4.9407   -0.1054 H   0  0  0  0  0  0
   -5.4739    5.8551    0.7081 H   0  0  0  0  0  0
   -5.0794    3.8421    2.2338 H   0  0  0  0  0  0
   -6.2699    2.9513    1.3003 H   0  0  0  0  0  0
   -4.8461    3.2948   -0.7763 H   0  0  0  0  0  0
   -3.6934    4.1909    0.2016 H   0  0  0  0  0  0
   -3.3836    2.0081    1.6303 H   0  0  0  0  0  0
   -3.7731    1.1783   -1.2872 H   0  0  0  0  0  0
   -2.6723   -0.3159    1.1787 H   0  0  0  0  0  0
   -3.0978   -1.0254   -0.3764 H   0  0  0  0  0  0
   -1.1663    0.3042   -1.4171 H   0  0  0  0  0  0
   -0.7242    0.8192    0.1980 H   0  0  0  0  0  0
   -0.5757   -1.7125    0.8095 H   0  0  0  0  0  0
   -0.6953   -2.0367   -0.9125 H   0  0  0  0  0  0
    1.4858   -0.4143    0.5096 H   0  0  0  0  0  0
    1.6686   -2.0281   -0.1558 H   0  0  0  0  0  0
    1.2693   -1.0934   -2.4732 H   0  0  0  0  0  0
    1.1237    0.5146   -1.7835 H   0  0  0  0  0  0
    3.4638    0.2923   -0.8356 H   0  0  0  0  0  0
    3.6217   -1.2477   -1.6605 H   0  0  0  0  0  0
    3.2802   -0.0762   -3.8744 H   0  0  0  0  0  0
    3.0525    1.4412   -3.0215 H   0  0  0  0  0  0
    5.3065    1.5209   -3.7749 H   0  0  0  0  0  0
    5.4228    1.1664   -2.0636 H   0  0  0  0  0  0
    5.6116   -1.3431   -2.7408 H   0  0  0  0  0  0
    5.7699   -0.7813   -4.3969 H   0  0  0  0  0  0
    7.6348   -0.1300   -2.0500 H   0  0  0  0  0  0
    7.9814   -1.2273   -3.3750 H   0  0  0  0  0  0
    7.8647    0.7436   -4.9824 H   0  0  0  0  0  0
    7.6244    1.8098   -3.6093 H   0  0  0  0  0  0
    9.8267    0.9938   -2.6389 H   0  0  0  0  0  0
   10.0859    0.0598   -4.1044 H   0  0  0  0  0  0
   10.0329    2.1798   -5.4747 H   0  0  0  0  0  0
    9.7464    3.1062   -3.9938 H   0  0  0  0  0  0
   11.9899    2.2701   -3.1443 H   0  0  0  0  0  0
   12.1982    1.4169   -4.6893 H   0  0  0  0  0  0
   11.8478    4.4548   -4.5100 H   0  0  0  0  0  0
   13.3967    3.6447   -4.6190 H   0  0  0  0  0  0
  1  2  1  0  0  0
  1 29  1  0  0  0
  1 30  1  0  0  0
  1 31  1  0  0  0
  2  3  1  0  0  0
  2 32  1  0  0  0
  2 33  1  0  0  0
  3  4  1  0  0  0
  3 34  1  0  0  0
  3 35  1  0  0  0
  4  5  1  0  0  0
  4 36  1  0  0  0
  4 37  1  0  0  0
  5  6  1  0  0  0
  5 38  1  0  0  0
  5 39  1  0  0  0
  6  7  1  0  0  0
  6 40  1  0  0  0
  6 41  1  0  0  0
  7  8  1  0  0  0
  7 42  1  0  0  0
  7 43  1  0  0  0
  8  9  1  0  0  0
  8 44  1  0  0  0
  8 45  1  0  0  0
  9 10  2  0  0  0
  9 46  1  0  0  0
 10 11  1  0  0  0
 10 47  1  0  0  0
 11 12  1  0  0  0
 11 48  1  0  0  0
 11 49  1  0  0  0
 12 13  1  0  0  0
 12 50  1  0  0  0
 12 51  1  0  0  0
 13 14  1  0  0  0
 13 52  1  0  0  0
 13 53  1  0  0  0
 14 15  1  0  0  0
 14 54  1  0  0  0
 14 55  1  0  0  0
 15 16  1  0  0  0
 15 56  1  0  0  0
 15 57  1  0  0  0
 16 17  1  0  0  0
 16 58  1  0  0  0
 16 59  1  0  0  0
 17 18  1  0  0  0
 17 60  1  0  0  0
 17 61  1  0  0  0
 18 19  1  0  0  0
 18 62  1  0  0  0
 18 63  1  0  0  0
 19 20  1  0  0  0
 19 64  1  0  0  0
 19 65  1  0  0  0
 20 21  1  0  0  0
 20 66  1  0  0  0
 20 67  1  0  0  0
 21 22  1  0  0  0
 21 68  1  0  0  0
 21 69  1  0  0  0
 22 23  1  0  0  0
 22 70  1  0  0  0
 22 71  1  0  0  0
 23 24  1  0  0  0
 23 72  1  0  0  0
 23 73  1  0  0  0
 24 25  1  0  0  0
 24 74  1  0  0  0
 24 75  1  0  0  0
 25 26  1  0  0  0
 25 76  1  0  0  0
 25 77  1  0  0  0
 26 27  2  0  0  0
 26 28  1  0  0  0
M  END
>  <s_lp_Force_Field> (1)
S-OPLS

>  <r_lp_Energy> (1)
8.095776

>  <b_lp_Chiralities_Consistent> (1)
1

>  <r_epik_Ionization_Penalty> (1)
  0.0049

>  <r_epik_Ionization_Penalty_Charging> (1)
  0.0049

>  <r_epik_Ionization_Penalty_Neutral> (1)
  0.0000

>  <r_epik_State_Penalty> (1)
  0.0035

>  <r_epik_Charging_Adjusted_Penalty> (1)
0.00839777765143097

>  <i_epik_Tot_Q> (1)
-1

>  <i_epik_Tot_abs_Q> (1)
1

>  <i_m_Spin_multiplicity> (1)
1

>  <s_j_Task> (1)
Single Point

>  <s_j_QM_Method> (1)
DFT(b3lyp-d3)

>  <s_j_QM_Basis> (1)
6-31g**

>  <i_j_Number_of_canonical_orbitals> (1)
665

>  <i_j_Geometry_convergence_category> (1)
4

>  <r_j_Gas_Phase_Energy> (1)
-1170.93423459782

>  <r_j_Final_Energy> (1)
-1170.93423459782

>  <r_j_HOMO> (1)
-0.00905219818061254

>  <r_j_LUMO> (1)
0.0627740016836841

>  <r_j_Polarizability> (1)
296.771689841367

>  <r_j_QM_Dipole_(debye)> (1)
53.6841113740492

>  <r_j_QM_Dipole_X_(debye)> (1)
-47.1088626803506

>  <r_j_QM_Dipole_Y_(debye)> (1)
-4.47958044060666

>  <r_j_QM_Dipole_Z_(debye)> (1)
25.350980850084

>  <r_j_Lowest_Frequency_(cm-1)> (1)
-11.7638096362062

>  <r_j_Highest_Frequency_(cm-1)> (1)
3124.83177266134

>  <r_j_2nd_Lowest_Frequency_(cm-1)> (1)
8.44672046508792

>  <i_j_Num_Negative_Frequencies> (1)
1

>  <r_j_Zero_Point_Energy_(kcal/mol)> (1)
447.372859037984

>  <r_j_Entropy_(cal/mol/K)_298.15K_1.00E+00atm> (1)
202.901554354308

>  <r_j_Enthalpy_(kcal/mol)_298.15K_1.00E+00atm> (1)
21.1561687308259

>  <r_j_Free_Energy_(kcal/mol)_298.15K_1.00E+00atm> (1)
-39.3389296999109

>  <r_j_Internal_Energy_(kcal/mol)_298.15K_1.00E+00atm> (1)
20.5636831419986

>  <r_j_Heat_Capacity_(cal/mol/K)_298.15K_1.00E+00atm> (1)
124.150055249871

>  <r_j_ln(Q)_298.15K_1.00E+00atm> (1)
66.3964329964139

>  <r_j_Total_Internal_Energy_(au)_298.15K_1.00E+00atm> (1)
-1170.18853024665

>  <r_j_Total_Enthalpy_(au)_298.15K_1.00E+00atm> (1)
-1170.18758606076

>  <r_j_Total_Free_Energy_(au)_298.15K_1.00E+00atm> (1)
-1170.28399113721

$$$$
