544588_Dimethylcyclobutanone
                    3D
 Schrodinger Suite 2021-3.
 17 17  0  0  1  0            999 V2000
    0.0221   -0.0846   -0.0222 C   0  0  0  0  0  0
    1.5362    0.0536   -0.0872 C   0  0  0  0  0  0
    2.1398    1.0032   -1.1720 C   0  0  0  0  0  0
    3.0672    1.5470   -0.0764 C   0  0  0  0  0  0
    4.1212    2.1318   -0.0829 O   0  0  0  0  0  0
    2.2393    0.8888    1.0364 C   0  0  0  0  0  0
    2.9882    0.1967    2.1661 C   0  0  0  0  0  0
   -0.4550    0.9008    0.0385 H   0  0  0  0  0  0
   -0.2857   -0.6601    0.8578 H   0  0  0  0  0  0
   -0.3716   -0.5927   -0.9091 H   0  0  0  0  0  0
    2.0061   -0.9350   -0.1543 H   0  0  0  0  0  0
    2.6232    0.5651   -2.0497 H   0  0  0  0  0  0
    1.4245    1.7646   -1.5082 H   0  0  0  0  0  0
    1.5338    1.6320    1.4378 H   0  0  0  0  0  0
    3.5672    0.9229    2.7444 H   0  0  0  0  0  0
    3.6874   -0.5466    1.7692 H   0  0  0  0  0  0
    2.2980   -0.3132    2.8461 H   0  0  0  0  0  0
  1  2  1  0  0  0
  1  8  1  0  0  0
  1  9  1  0  0  0
  1 10  1  0  0  0
  2  6  1  0  0  0
  2  3  1  0  0  0
  2 11  1  0  0  0
  3  4  1  0  0  0
  3 12  1  0  0  0
  3 13  1  0  0  0
  4  5  2  0  0  0
  4  6  1  0  0  0
  6  7  1  0  0  0
  6 14  1  0  0  0
  7 15  1  0  0  0
  7 16  1  0  0  0
  7 17  1  0  0  0
M  END
>  <i_m_Spin_multiplicity> (1)
1

>  <s_j_Task> (1)
Single Point

>  <s_j_QM_Method> (1)
DFT(b3lyp-d3)

>  <s_j_QM_Basis> (1)
cc-pvtz(-f)

>  <i_j_Number_of_canonical_orbitals> (1)
249

>  <i_j_Geometry_convergence_category> (1)
3

>  <r_j_Gas_Phase_Energy> (1)
-309.979616997369

>  <r_j_Final_Energy> (1)
-309.979616997369

>  <r_j_HOMO> (1)
-0.241460837438555

>  <r_j_LUMO> (1)
-0.0225519103083569

>  <r_j_Polarizability> (1)
71.0220184070165

>  <r_j_QM_Dipole_(debye)> (1)
3.05060130967009

>  <r_j_QM_Dipole_X_(debye)> (1)
-2.58435938242211

>  <r_j_QM_Dipole_Y_(debye)> (1)
-1.60730745445495

>  <r_j_QM_Dipole_Z_(debye)> (1)
0.209326730020888

>  <r_j_Lowest_Frequency_(cm-1)> (1)
110.994110905949

>  <r_j_Highest_Frequency_(cm-1)> (1)
3061.7622675714

>  <r_j_2nd_Lowest_Frequency_(cm-1)> (1)
198.849022970183

>  <i_j_Num_Negative_Frequencies> (1)
0

>  <r_j_Zero_Point_Energy_(kcal/mol)> (1)
91.9995073934262

>  <r_j_Entropy_(cal/mol/K)_298.15K_1.00E+00atm> (1)
82.6876190117131

>  <r_j_Enthalpy_(kcal/mol)_298.15K_1.00E+00atm> (1)
5.1887938762954

>  <r_j_Free_Energy_(kcal/mol)_298.15K_1.00E+00atm> (1)
-19.4645197320469

>  <r_j_Internal_Energy_(kcal/mol)_298.15K_1.00E+00atm> (1)
4.59630828746813

>  <r_j_Heat_Capacity_(cal/mol/K)_298.15K_1.00E+00atm> (1)
27.5598758146708

>  <r_j_ln(Q)_298.15K_1.00E+00atm> (1)
32.852309151643

>  <r_j_Total_Internal_Energy_(au)_298.15K_1.00E+00atm> (1)
-309.825681765633

>  <r_j_Total_Enthalpy_(au)_298.15K_1.00E+00atm> (1)
-309.824737579741

>  <r_j_Total_Free_Energy_(au)_298.15K_1.00E+00atm> (1)
-309.864025136004

>  <r_lp_tautomer_probability> (1)
1

>  <r_epik_Ionization_Penalty> (1)
  0.0000

>  <r_epik_Ionization_Penalty_Charging> (1)
  0.0000

>  <r_epik_Ionization_Penalty_Neutral> (1)
  0.0000

>  <r_epik_State_Penalty> (1)
  0.0000

>  <r_epik_Charging_Adjusted_Penalty> (1)
0

>  <i_epik_Tot_Q> (1)
0

>  <i_epik_Tot_abs_Q> (1)
0

>  <s_lp_Force_Field> (1)
S-OPLS

>  <r_lp_Energy> (1)
-0.115887

>  <b_lp_Chiralities_Consistent> (1)
1

$$$$
