5455_Tetramethylthiuram Disulfide
                    3D
 Schrodinger Suite 2021-3.
 24 23  0  0  1  0            999 V2000
   -2.4735    1.4249   -0.3890 C   0  0  0  0  0  0
   -1.3678    2.2977    0.0239 N   0  0  0  0  0  0
   -1.6562    3.7046    0.3220 C   0  0  0  0  0  0
   -0.0955    1.8592    0.1428 C   0  0  0  0  0  0
    1.1905    2.7798    0.6353 S   0  0  0  0  0  0
    0.0301    0.0731   -0.3356 S   0  0  0  0  0  0
    1.9940   -0.3916   -0.0776 S   0  0  0  0  0  0
    2.1358   -0.8570    1.7108 C   0  0  0  0  0  0
    0.8555   -0.9042    2.7605 S   0  0  0  0  0  0
    3.4136   -1.1622    2.0258 N   0  0  0  0  0  0
    4.5146   -1.0723    1.0590 C   0  0  0  0  0  0
    3.7115   -1.6155    3.3886 C   0  0  0  0  0  0
   -2.5499    0.5506    0.2651 H   0  0  0  0  0  0
   -2.3526    1.0856   -1.4241 H   0  0  0  0  0  0
   -3.4064    1.9829   -0.3205 H   0  0  0  0  0  0
   -1.0639    4.3602   -0.3225 H   0  0  0  0  0  0
   -1.3993    3.9348    1.3599 H   0  0  0  0  0  0
   -2.7181    3.8884    0.1551 H   0  0  0  0  0  0
    4.5547   -0.0788    0.6018 H   0  0  0  0  0  0
    4.4185   -1.8249    0.2678 H   0  0  0  0  0  0
    5.4555   -1.2431    1.5806 H   0  0  0  0  0  0
    3.1293   -2.5094    3.6292 H   0  0  0  0  0  0
    3.4493   -0.8400    4.1138 H   0  0  0  0  0  0
    4.7760   -1.8418    3.4585 H   0  0  0  0  0  0
  1  2  1  0  0  0
  1 13  1  0  0  0
  1 14  1  0  0  0
  1 15  1  0  0  0
  2  3  1  0  0  0
  2  4  1  0  0  0
  3 16  1  0  0  0
  3 17  1  0  0  0
  3 18  1  0  0  0
  4  5  2  0  0  0
  4  6  1  0  0  0
  6  7  1  0  0  0
  7  8  1  0  0  0
  8  9  2  0  0  0
  8 10  1  0  0  0
 10 11  1  0  0  0
 10 12  1  0  0  0
 11 19  1  0  0  0
 11 20  1  0  0  0
 11 21  1  0  0  0
 12 22  1  0  0  0
 12 23  1  0  0  0
 12 24  1  0  0  0
M  END
>  <i_m_Spin_multiplicity> (1)
1

>  <s_j_Task> (1)
Single Point

>  <s_j_QM_Method> (1)
DFT(b3lyp-d3)

>  <s_j_QM_Basis> (1)
cc-pvtz(-f)

>  <i_j_Number_of_canonical_orbitals> (1)
400

>  <i_j_Geometry_convergence_category> (1)
3

>  <r_j_Gas_Phase_Energy> (1)
-1938.38110520074

>  <r_j_Final_Energy> (1)
-1938.38110520074

>  <r_j_HOMO> (1)
-0.206488387382419

>  <r_j_LUMO> (1)
-0.0439936168187912

>  <r_j_Polarizability> (1)
174.630660396976

>  <r_j_QM_Dipole_(debye)> (1)
1.16717950688414

>  <r_j_QM_Dipole_X_(debye)> (1)
0.00498951648116903

>  <r_j_QM_Dipole_Y_(debye)> (1)
-0.537540717344047

>  <r_j_QM_Dipole_Z_(debye)> (1)
-1.0360178971489

>  <r_j_Lowest_Frequency_(cm-1)> (1)
39.5623038912227

>  <r_j_Highest_Frequency_(cm-1)> (1)
3107.30116914953

>  <r_j_2nd_Lowest_Frequency_(cm-1)> (1)
40.3815195911991

>  <i_j_Num_Negative_Frequencies> (1)
0

>  <r_j_Zero_Point_Energy_(kcal/mol)> (1)
114.974103287567

>  <r_j_Entropy_(cal/mol/K)_298.15K_1.00E+00atm> (1)
122.246394059144

>  <r_j_Enthalpy_(kcal/mol)_298.15K_1.00E+00atm> (1)
10.1381831943156

>  <r_j_Free_Energy_(kcal/mol)_298.15K_1.00E+00atm> (1)
-26.309579194418

>  <r_j_Internal_Energy_(kcal/mol)_298.15K_1.00E+00atm> (1)
9.54569760548836

>  <r_j_Heat_Capacity_(cal/mol/K)_298.15K_1.00E+00atm> (1)
53.7278273803573

>  <r_j_ln(Q)_298.15K_1.00E+00atm> (1)
44.4054331287507

>  <r_j_Total_Internal_Energy_(au)_298.15K_1.00E+00atm> (1)
-1938.18267026574

>  <r_j_Total_Enthalpy_(au)_298.15K_1.00E+00atm> (1)
-1938.18172607985

>  <r_j_Total_Free_Energy_(au)_298.15K_1.00E+00atm> (1)
-1938.23980928677

>  <r_lp_tautomer_probability> (1)
1

>  <r_epik_Ionization_Penalty> (1)
  0.0000

>  <r_epik_Ionization_Penalty_Charging> (1)
  0.0000

>  <r_epik_Ionization_Penalty_Neutral> (1)
  0.0000

>  <r_epik_State_Penalty> (1)
  0.0000

>  <r_epik_Charging_Adjusted_Penalty> (1)
0

>  <i_epik_Tot_Q> (1)
0

>  <i_epik_Tot_abs_Q> (1)
0

>  <s_lp_Force_Field> (1)
S-OPLS

>  <r_lp_Energy> (1)
27.68692

>  <b_lp_Chiralities_Consistent> (1)
1

$$$$
