5463846_Trimethylcyclohexanol
                    3D
 Schrodinger Suite 2021-3.
 28 28  0  0  1  0            999 V2000
   -0.0458    0.0260   -0.0439 C   0  0  0  0  0  0
    1.4941    0.0023    0.0233 C   0  0  0  0  0  0
    2.0670    0.7925   -1.1828 C   0  0  0  0  0  0
    3.5983    0.7507   -1.2904 C   0  0  0  0  0  0
    4.1110   -0.6959   -1.3235 C   0  0  0  0  0  0
    3.5736   -1.4932   -0.1262 C   0  0  0  0  0  0
    2.0314   -1.4724   -0.0156 C   0  0  0  0  0  0
    1.4066   -2.3064   -1.1496 C   0  0  0  0  0  0
    1.6435   -2.0649    1.2368 O   0  0  0  0  0  0
    1.9077    0.6879    1.3454 C   0  0  0  0  0  0
   -0.4138    1.0444    0.1216 H   0  0  0  0  0  0
   -0.4727   -0.6214    0.7271 H   0  0  0  0  0  0
   -0.4223   -0.3014   -1.0179 H   0  0  0  0  0  0
    1.6364    0.3964   -2.1120 H   0  0  0  0  0  0
    1.7218    1.8316   -1.1107 H   0  0  0  0  0  0
    3.9222    1.2897   -2.1886 H   0  0  0  0  0  0
    4.0470    1.2760   -0.4380 H   0  0  0  0  0  0
    3.7944   -1.1739   -2.2600 H   0  0  0  0  0  0
    5.2071   -0.7159   -1.3234 H   0  0  0  0  0  0
    3.9053   -2.5392   -0.1853 H   0  0  0  0  0  0
    3.9886   -1.0913    0.8040 H   0  0  0  0  0  0
    1.5355   -1.8515   -2.1347 H   0  0  0  0  0  0
    0.3397   -2.4510   -0.9715 H   0  0  0  0  0  0
    1.8783   -3.2961   -1.1829 H   0  0  0  0  0  0
    1.9473   -2.9824    1.2283 H   0  0  0  0  0  0
    2.9894    0.7062    1.4969 H   0  0  0  0  0  0
    1.4646    0.1719    2.1988 H   0  0  0  0  0  0
    1.5584    1.7264    1.3461 H   0  0  0  0  0  0
  1  2  1  0  0  0
  1 11  1  0  0  0
  1 12  1  0  0  0
  1 13  1  0  0  0
  2  7  1  0  0  0
  2  3  1  0  0  0
  2 10  1  0  0  0
  3  4  1  0  0  0
  3 14  1  0  0  0
  3 15  1  0  0  0
  4  5  1  0  0  0
  4 16  1  0  0  0
  4 17  1  0  0  0
  5  6  1  0  0  0
  5 18  1  0  0  0
  5 19  1  0  0  0
  6  7  1  0  0  0
  6 20  1  0  0  0
  6 21  1  0  0  0
  7  8  1  0  0  0
  7  9  1  0  0  0
  8 22  1  0  0  0
  8 23  1  0  0  0
  8 24  1  0  0  0
  9 25  1  0  0  0
 10 26  1  0  0  0
 10 27  1  0  0  0
 10 28  1  0  0  0
M  END
>  <i_m_Spin_multiplicity> (1)
1

>  <s_j_Task> (1)
Single Point

>  <s_j_QM_Method> (1)
DFT(b3lyp-d3)

>  <s_j_QM_Basis> (1)
cc-pvtz(-f)

>  <i_j_Number_of_canonical_orbitals> (1)
388

>  <i_j_Geometry_convergence_category> (1)
1

>  <r_j_Gas_Phase_Energy> (1)
-429.210130303614

>  <r_j_Final_Energy> (1)
-429.210130303614

>  <r_j_HOMO> (1)
-0.273429819836204

>  <r_j_LUMO> (1)
0.0130562437707503

>  <r_j_Polarizability> (1)
107.258461616022

>  <r_j_QM_Dipole_(debye)> (1)
1.46677672152041

>  <r_j_QM_Dipole_X_(debye)> (1)
0.800643413402051

>  <r_j_QM_Dipole_Y_(debye)> (1)
-0.65910237151114

>  <r_j_QM_Dipole_Z_(debye)> (1)
-1.03729848126683

>  <r_j_Lowest_Frequency_(cm-1)> (1)
146.698470286372

>  <r_j_Highest_Frequency_(cm-1)> (1)
3751.8890617747

>  <r_j_2nd_Lowest_Frequency_(cm-1)> (1)
208.038791777853

>  <i_j_Num_Negative_Frequencies> (1)
0

>  <r_j_Zero_Point_Energy_(kcal/mol)> (1)
161.956712244483

>  <r_j_Entropy_(cal/mol/K)_298.15K_1.00E+00atm> (1)
93.9328096865519

>  <r_j_Enthalpy_(kcal/mol)_298.15K_1.00E+00atm> (1)
6.98842658899259

>  <r_j_Free_Energy_(kcal/mol)_298.15K_1.00E+00atm> (1)
-21.0176406190528

>  <r_j_Internal_Energy_(kcal/mol)_298.15K_1.00E+00atm> (1)
6.39594100016532

>  <r_j_Heat_Capacity_(cal/mol/K)_298.15K_1.00E+00atm> (1)
43.5226419029377

>  <r_j_ln(Q)_298.15K_1.00E+00atm> (1)
35.4736739853095

>  <r_j_Total_Internal_Energy_(au)_298.15K_1.00E+00atm> (1)
-428.941843271636

>  <r_j_Total_Enthalpy_(au)_298.15K_1.00E+00atm> (1)
-428.940899085743

>  <r_j_Total_Free_Energy_(au)_298.15K_1.00E+00atm> (1)
-428.985529594998

>  <r_lp_tautomer_probability> (1)
1

>  <r_epik_Ionization_Penalty> (1)
  0.0000

>  <r_epik_Ionization_Penalty_Charging> (1)
  0.0000

>  <r_epik_Ionization_Penalty_Neutral> (1)
  0.0000

>  <r_epik_State_Penalty> (1)
  0.0000

>  <r_epik_Charging_Adjusted_Penalty> (1)
0

>  <i_epik_Tot_Q> (1)
0

>  <i_epik_Tot_abs_Q> (1)
0

>  <s_lp_Force_Field> (1)
S-OPLS

>  <r_lp_Energy> (1)
17.33194

>  <b_lp_Chiralities_Consistent> (1)
1

$$$$
