549158_Cyclohexane, pentylidene-
                    3D
 Schrodinger Suite 2021-3.
 31 31  0  0  1  0            999 V2000
   -0.3595    1.0833    0.8828 C   0  0  0  0  0  0
    0.1328    0.0310   -0.1152 C   0  0  0  0  0  0
    1.6135   -0.3224    0.0655 C   0  0  0  0  0  0
    2.1067   -1.3873   -0.9333 C   0  0  0  0  0  0
    3.5790   -1.6685   -0.8001 C   0  0  0  0  0  0
    4.1761   -2.7671   -0.3159 C   0  0  0  0  0  0
    3.4627   -3.9882    0.2222 C   0  0  0  0  0  0
    3.8767   -4.2619    1.6849 C   0  0  0  0  0  0
    5.4022   -4.3758    1.8228 C   0  0  0  0  0  0
    6.1056   -3.1296    1.2650 C   0  0  0  0  0  0
    5.6831   -2.8601   -0.1947 C   0  0  0  0  0  0
   -1.4186    1.3171    0.7318 H   0  0  0  0  0  0
    0.2060    2.0169    0.7821 H   0  0  0  0  0  0
   -0.2384    0.7348    1.9149 H   0  0  0  0  0  0
   -0.4711   -0.8815   -0.0158 H   0  0  0  0  0  0
   -0.0297    0.3913   -1.1403 H   0  0  0  0  0  0
    2.2224    0.5866   -0.0405 H   0  0  0  0  0  0
    1.7872   -0.6856    1.0875 H   0  0  0  0  0  0
    1.5125   -2.2990   -0.8072 H   0  0  0  0  0  0
    1.9005   -1.0298   -1.9527 H   0  0  0  0  0  0
    4.2253   -0.8475   -1.1165 H   0  0  0  0  0  0
    2.3761   -3.8918    0.1516 H   0  0  0  0  0  0
    3.7439   -4.8617   -0.3864 H   0  0  0  0  0  0
    3.5158   -3.4367    2.3137 H   0  0  0  0  0  0
    3.3897   -5.1754    2.0467 H   0  0  0  0  0  0
    5.6791   -4.5336    2.8720 H   0  0  0  0  0  0
    5.7477   -5.2615    1.2701 H   0  0  0  0  0  0
    5.8384   -2.2574    1.8768 H   0  0  0  0  0  0
    7.1946   -3.2427    1.3279 H   0  0  0  0  0  0
    6.0466   -3.6918   -0.8184 H   0  0  0  0  0  0
    6.1604   -1.9482   -0.5701 H   0  0  0  0  0  0
  1  2  1  0  0  0
  1 12  1  0  0  0
  1 13  1  0  0  0
  1 14  1  0  0  0
  2  3  1  0  0  0
  2 15  1  0  0  0
  2 16  1  0  0  0
  3  4  1  0  0  0
  3 17  1  0  0  0
  3 18  1  0  0  0
  4  5  1  0  0  0
  4 19  1  0  0  0
  4 20  1  0  0  0
  5  6  2  0  0  0
  5 21  1  0  0  0
  6 11  1  0  0  0
  6  7  1  0  0  0
  7  8  1  0  0  0
  7 22  1  0  0  0
  7 23  1  0  0  0
  8  9  1  0  0  0
  8 24  1  0  0  0
  8 25  1  0  0  0
  9 10  1  0  0  0
  9 26  1  0  0  0
  9 27  1  0  0  0
 10 11  1  0  0  0
 10 28  1  0  0  0
 10 29  1  0  0  0
 11 30  1  0  0  0
 11 31  1  0  0  0
M  END
>  <i_m_Spin_multiplicity> (1)
1

>  <s_j_Task> (1)
Single Point

>  <s_j_QM_Method> (1)
DFT(b3lyp-d3)

>  <s_j_QM_Basis> (1)
cc-pvtz(-f)

>  <i_j_Number_of_canonical_orbitals> (1)
429

>  <i_j_Geometry_convergence_category> (1)
3

>  <r_j_Gas_Phase_Energy> (1)
-431.388517166028

>  <r_j_Final_Energy> (1)
-431.388517166028

>  <r_j_HOMO> (1)
-0.245132399882316

>  <r_j_LUMO> (1)
-0.00481025022237019

>  <r_j_Polarizability> (1)
132.741149536128

>  <r_j_QM_Dipole_(debye)> (1)
0.306803766480285

>  <r_j_QM_Dipole_X_(debye)> (1)
-0.0244733116447692

>  <r_j_QM_Dipole_Y_(debye)> (1)
-0.222263858587212

>  <r_j_QM_Dipole_Z_(debye)> (1)
0.210067573198605

>  <r_j_Lowest_Frequency_(cm-1)> (1)
54.4760562715974

>  <r_j_Highest_Frequency_(cm-1)> (1)
3064.82212596854

>  <r_j_2nd_Lowest_Frequency_(cm-1)> (1)
88.2995192746178

>  <i_j_Num_Negative_Frequencies> (1)
0

>  <r_j_Zero_Point_Energy_(kcal/mol)> (1)
180.593019424444

>  <r_j_Entropy_(cal/mol/K)_298.15K_1.00E+00atm> (1)
103.384208763081

>  <r_j_Enthalpy_(kcal/mol)_298.15K_1.00E+00atm> (1)
7.76738467509447

>  <r_j_Free_Energy_(kcal/mol)_298.15K_1.00E+00atm> (1)
-23.0566171676181

>  <r_j_Internal_Energy_(kcal/mol)_298.15K_1.00E+00atm> (1)
7.17489908626719

>  <r_j_Heat_Capacity_(cal/mol/K)_298.15K_1.00E+00atm> (1)
45.5437432737842

>  <r_j_ln(Q)_298.15K_1.00E+00atm> (1)
38.9150683196443

>  <r_j_Total_Internal_Energy_(au)_298.15K_1.00E+00atm> (1)
-431.089289939209

>  <r_j_Total_Enthalpy_(au)_298.15K_1.00E+00atm> (1)
-431.088345753317

>  <r_j_Total_Free_Energy_(au)_298.15K_1.00E+00atm> (1)
-431.137466927285

>  <r_lp_tautomer_probability> (1)
1

>  <r_epik_Ionization_Penalty> (1)
  0.0000

>  <r_epik_Ionization_Penalty_Charging> (1)
  0.0000

>  <r_epik_Ionization_Penalty_Neutral> (1)
  0.0000

>  <r_epik_State_Penalty> (1)
  0.0000

>  <r_epik_Charging_Adjusted_Penalty> (1)
0

>  <i_epik_Tot_Q> (1)
0

>  <i_epik_Tot_abs_Q> (1)
0

>  <s_lp_Force_Field> (1)
S-OPLS

>  <r_lp_Energy> (1)
2.919256

>  <b_lp_Chiralities_Consistent> (1)
1

$$$$
