549623_1,1,2,3-tetramethylcyclohexane
                    3D
 Schrodinger Suite 2021-3.
 30 30  0  0  1  0            999 V2000
   -0.0442   -0.0321   -0.0559 C   0  0  0  0  0  0
    1.4912   -0.0032   -0.0177 C   0  0  0  0  0  0
    2.0304    0.7192   -1.2646 C   0  0  0  0  0  0
    3.5594    0.7846   -1.2826 C   0  0  0  0  0  0
    4.0824    1.4332    0.0021 C   0  0  0  0  0  0
    3.6064    0.7334    1.3005 C   0  0  0  0  0  0
    2.0411    0.6396    1.2856 C   0  0  0  0  0  0
    1.4677   -0.0551    2.5334 C   0  0  0  0  0  0
    4.2641   -0.6560    1.4264 C   0  0  0  0  0  0
    4.0799    1.5987    2.4860 C   0  0  0  0  0  0
   -0.4561    0.9750    0.0857 H   0  0  0  0  0  0
   -0.4698   -0.6797    0.7149 H   0  0  0  0  0  0
   -0.3976   -0.4004   -1.0251 H   0  0  0  0  0  0
    1.8436   -1.0452   -0.0545 H   0  0  0  0  0  0
    1.6560    0.2224   -2.1684 H   0  0  0  0  0  0
    1.6236    1.7418   -1.2814 H   0  0  0  0  0  0
    3.9699   -0.2278   -1.3897 H   0  0  0  0  0  0
    3.9071    1.3504   -2.1554 H   0  0  0  0  0  0
    5.1796    1.4676   -0.0052 H   0  0  0  0  0  0
    3.7410    2.4783    0.0288 H   0  0  0  0  0  0
    1.6796    1.6812    1.2926 H   0  0  0  0  0  0
    1.6254   -1.1387    2.4934 H   0  0  0  0  0  0
    0.3919    0.1162    2.6215 H   0  0  0  0  0  0
    1.9248    0.3137    3.4549 H   0  0  0  0  0  0
    4.0058   -1.1334    2.3766 H   0  0  0  0  0  0
    5.3554   -0.5619    1.3923 H   0  0  0  0  0  0
    3.9677   -1.3366    0.6241 H   0  0  0  0  0  0
    3.8823    1.1259    3.4524 H   0  0  0  0  0  0
    3.5877    2.5779    2.4820 H   0  0  0  0  0  0
    5.1609    1.7687    2.4240 H   0  0  0  0  0  0
  1  2  1  0  0  0
  1 11  1  0  0  0
  1 12  1  0  0  0
  1 13  1  0  0  0
  2  7  1  0  0  0
  2  3  1  0  0  0
  2 14  1  0  0  0
  3  4  1  0  0  0
  3 15  1  0  0  0
  3 16  1  0  0  0
  4  5  1  0  0  0
  4 17  1  0  0  0
  4 18  1  0  0  0
  5  6  1  0  0  0
  5 19  1  0  0  0
  5 20  1  0  0  0
  6  7  1  0  0  0
  6  9  1  0  0  0
  6 10  1  0  0  0
  7  8  1  0  0  0
  7 21  1  0  0  0
  8 22  1  0  0  0
  8 23  1  0  0  0
  8 24  1  0  0  0
  9 25  1  0  0  0
  9 26  1  0  0  0
  9 27  1  0  0  0
 10 28  1  0  0  0
 10 29  1  0  0  0
 10 30  1  0  0  0
M  END
>  <i_m_Spin_multiplicity> (1)
1

>  <s_j_Task> (1)
Single Point

>  <s_j_QM_Method> (1)
DFT(b3lyp-d3)

>  <s_j_QM_Basis> (1)
cc-pvtz(-f)

>  <i_j_Number_of_canonical_orbitals> (1)
406

>  <i_j_Geometry_convergence_category> (1)
0

>  <r_j_Gas_Phase_Energy> (1)
-393.291363889664

>  <r_j_Final_Energy> (1)
-393.291363889664

>  <r_j_HOMO> (1)
-0.286456612366773

>  <r_j_LUMO> (1)
0.0254461937071774

>  <r_j_Polarizability> (1)
116.194679643296

>  <r_j_QM_Dipole_(debye)> (1)
0.0867102442504195

>  <r_j_QM_Dipole_X_(debye)> (1)
0.0241526580170981

>  <r_j_QM_Dipole_Y_(debye)> (1)
-0.0329745222958187

>  <r_j_QM_Dipole_Z_(debye)> (1)
-0.0764721939533519

>  <r_j_Lowest_Frequency_(cm-1)> (1)
111.895545215456

>  <r_j_Highest_Frequency_(cm-1)> (1)
3071.2338632969

>  <r_j_2nd_Lowest_Frequency_(cm-1)> (1)
165.588375474162

>  <i_j_Num_Negative_Frequencies> (1)
0

>  <r_j_Zero_Point_Energy_(kcal/mol)> (1)
176.78416413921

>  <r_j_Entropy_(cal/mol/K)_298.15K_1.00E+00atm> (1)
96.0894384888508

>  <r_j_Enthalpy_(kcal/mol)_298.15K_1.00E+00atm> (1)
7.21933413337421

>  <r_j_Free_Energy_(kcal/mol)_298.15K_1.00E+00atm> (1)
-21.4297319520767

>  <r_j_Internal_Energy_(kcal/mol)_298.15K_1.00E+00atm> (1)
6.62684854454693

>  <r_j_Heat_Capacity_(cal/mol/K)_298.15K_1.00E+00atm> (1)
44.3591838811806

>  <r_j_ln(Q)_298.15K_1.00E+00atm> (1)
36.1692037007908

>  <r_j_Total_Internal_Energy_(au)_298.15K_1.00E+00atm> (1)
-392.99907983428

>  <r_j_Total_Enthalpy_(au)_298.15K_1.00E+00atm> (1)
-392.998135648388

>  <r_j_Total_Free_Energy_(au)_298.15K_1.00E+00atm> (1)
-393.043790841584

>  <r_lp_tautomer_probability> (1)
1

>  <r_epik_Ionization_Penalty> (1)
  0.0000

>  <r_epik_Ionization_Penalty_Charging> (1)
  0.0000

>  <r_epik_Ionization_Penalty_Neutral> (1)
  0.0000

>  <r_epik_State_Penalty> (1)
  0.0000

>  <r_epik_Charging_Adjusted_Penalty> (1)
0

>  <i_epik_Tot_Q> (1)
0

>  <i_epik_Tot_abs_Q> (1)
0

>  <s_lp_Force_Field> (1)
S-OPLS

>  <r_lp_Energy> (1)
20.944

>  <b_lp_Chiralities_Consistent> (1)
1

$$$$
