549923_1-ethyl-2,2,6-trimethylcyclohexane
                    3D
 Schrodinger Suite 2021-3.
 33 33  0  0  1  0            999 V2000
   -1.0465    1.0065   -0.0047 C   0  0  0  0  0  0
   -0.0587   -0.1671    0.0242 C   0  0  0  0  0  0
    1.4700    0.1055    0.0023 C   0  0  0  0  0  0
    1.9985    0.7709   -1.3073 C   0  0  0  0  0  0
    1.8633    2.3056   -1.3216 C   0  0  0  0  0  0
    2.5077    2.9482   -0.0884 C   0  0  0  0  0  0
    1.9440    2.3445    1.2037 C   0  0  0  0  0  0
    2.0688    0.8004    1.2807 C   0  0  0  0  0  0
    1.3738    0.3147    2.5666 C   0  0  0  0  0  0
    3.5618    0.4127    1.4054 C   0  0  0  0  0  0
    1.4045    0.1491   -2.5778 C   0  0  0  0  0  0
   -2.0743    0.6290    0.0390 H   0  0  0  0  0  0
   -0.9572    1.5987   -0.9191 H   0  0  0  0  0  0
   -0.9133    1.6849    0.8420 H   0  0  0  0  0  0
   -0.2769   -0.7784    0.9064 H   0  0  0  0  0  0
   -0.2848   -0.8193   -0.8273 H   0  0  0  0  0  0
    1.9006   -0.9081    0.0016 H   0  0  0  0  0  0
    3.0772    0.5623   -1.3373 H   0  0  0  0  0  0
    2.3263    2.6963   -2.2371 H   0  0  0  0  0  0
    0.8060    2.5909   -1.3690 H   0  0  0  0  0  0
    3.5952    2.8037   -0.1271 H   0  0  0  0  0  0
    2.3435    4.0325   -0.0945 H   0  0  0  0  0  0
    2.4480    2.7824    2.0755 H   0  0  0  0  0  0
    0.8886    2.6273    1.2901 H   0  0  0  0  0  0
    1.8804    0.7260    3.4472 H   0  0  0  0  0  0
    1.4051   -0.7780    2.6480 H   0  0  0  0  0  0
    0.3267    0.6272    2.6161 H   0  0  0  0  0  0
    4.0183    0.9137    2.2665 H   0  0  0  0  0  0
    4.1474    0.6816    0.5231 H   0  0  0  0  0  0
    3.6683   -0.6678    1.5537 H   0  0  0  0  0  0
    0.3448    0.3986   -2.6967 H   0  0  0  0  0  0
    1.4918   -0.9434   -2.5689 H   0  0  0  0  0  0
    1.9285    0.5185   -3.4661 H   0  0  0  0  0  0
  1  2  1  0  0  0
  1 12  1  0  0  0
  1 13  1  0  0  0
  1 14  1  0  0  0
  2  3  1  0  0  0
  2 15  1  0  0  0
  2 16  1  0  0  0
  3  8  1  0  0  0
  3  4  1  0  0  0
  3 17  1  0  0  0
  4  5  1  0  0  0
  4 11  1  0  0  0
  4 18  1  0  0  0
  5  6  1  0  0  0
  5 19  1  0  0  0
  5 20  1  0  0  0
  6  7  1  0  0  0
  6 21  1  0  0  0
  6 22  1  0  0  0
  7  8  1  0  0  0
  7 23  1  0  0  0
  7 24  1  0  0  0
  8  9  1  0  0  0
  8 10  1  0  0  0
  9 25  1  0  0  0
  9 26  1  0  0  0
  9 27  1  0  0  0
 10 28  1  0  0  0
 10 29  1  0  0  0
 10 30  1  0  0  0
 11 31  1  0  0  0
 11 32  1  0  0  0
 11 33  1  0  0  0
M  END
>  <i_m_Spin_multiplicity> (1)
1

>  <s_j_Task> (1)
Single Point

>  <s_j_QM_Method> (1)
DFT(b3lyp-d3)

>  <s_j_QM_Basis> (1)
cc-pvtz(-f)

>  <i_j_Number_of_canonical_orbitals> (1)
446

>  <i_j_Geometry_convergence_category> (1)
3

>  <r_j_Gas_Phase_Energy> (1)
-432.61218614091

>  <r_j_Final_Energy> (1)
-432.61218614091

>  <r_j_HOMO> (1)
-0.279185509855548

>  <r_j_LUMO> (1)
0.0252780671412363

>  <r_j_Polarizability> (1)
126.940212985275

>  <r_j_QM_Dipole_(debye)> (1)
0.0855154151856407

>  <r_j_QM_Dipole_X_(debye)> (1)
0.0555038298985999

>  <r_j_QM_Dipole_Y_(debye)> (1)
-0.0510960422680658

>  <r_j_QM_Dipole_Z_(debye)> (1)
-0.0402666805870539

>  <r_j_Lowest_Frequency_(cm-1)> (1)
128.001661143777

>  <r_j_Highest_Frequency_(cm-1)> (1)
3072.74502845372

>  <r_j_2nd_Lowest_Frequency_(cm-1)> (1)
138.946950634318

>  <i_j_Num_Negative_Frequencies> (1)
0

>  <r_j_Zero_Point_Energy_(kcal/mol)> (1)
195.120134928077

>  <r_j_Entropy_(cal/mol/K)_298.15K_1.00E+00atm> (1)
100.561600923695

>  <r_j_Enthalpy_(kcal/mol)_298.15K_1.00E+00atm> (1)
7.86294681061646

>  <r_j_Free_Energy_(kcal/mol)_298.15K_1.00E+00atm> (1)
-22.1194945047833

>  <r_j_Internal_Energy_(kcal/mol)_298.15K_1.00E+00atm> (1)
7.27046122178919

>  <r_j_Heat_Capacity_(cal/mol/K)_298.15K_1.00E+00atm> (1)
48.878559438168

>  <r_j_ln(Q)_298.15K_1.00E+00atm> (1)
37.3333882239483

>  <r_j_Total_Internal_Energy_(au)_298.15K_1.00E+00atm> (1)
-432.289656193832

>  <r_j_Total_Enthalpy_(au)_298.15K_1.00E+00atm> (1)
-432.28871200794

>  <r_j_Total_Free_Energy_(au)_298.15K_1.00E+00atm> (1)
-432.336492069833

>  <r_lp_tautomer_probability> (1)
1

>  <r_epik_Ionization_Penalty> (1)
  0.0000

>  <r_epik_Ionization_Penalty_Charging> (1)
  0.0000

>  <r_epik_Ionization_Penalty_Neutral> (1)
  0.0000

>  <r_epik_State_Penalty> (1)
  0.0000

>  <r_epik_Charging_Adjusted_Penalty> (1)
0

>  <i_epik_Tot_Q> (1)
0

>  <i_epik_Tot_abs_Q> (1)
0

>  <s_lp_Force_Field> (1)
S-OPLS

>  <r_lp_Energy> (1)
26.2666

>  <b_lp_Chiralities_Consistent> (1)
1

$$$$
