550318_Cyclohexane, 1,2-diethyl, cis
                    3D
 Schrodinger Suite 2021-3.
 30 30  0  0  1  0            999 V2000
   -0.6088    1.4996   -0.0314 C   0  0  0  0  0  0
   -0.0246    0.0815   -0.0021 C   0  0  0  0  0  0
    1.5167    0.0145    0.0312 C   0  0  0  0  0  0
    2.0804    0.7893    1.2409 C   0  0  0  0  0  0
    3.6112    0.7564    1.3125 C   0  0  0  0  0  0
    4.1239   -0.6859    1.3245 C   0  0  0  0  0  0
    3.5919   -1.4629    0.1150 C   0  0  0  0  0  0
    2.0518   -1.4464    0.0176 C   0  0  0  0  0  0
    1.5647   -2.2447   -1.2099 C   0  0  0  0  0  0
    2.0279   -3.7063   -1.2546 C   0  0  0  0  0  0
   -1.6919    1.4690   -0.1880 H   0  0  0  0  0  0
   -0.1722    2.0869   -0.8481 H   0  0  0  0  0  0
   -0.4295    2.0434    0.9005 H   0  0  0  0  0  0
   -0.4214   -0.4621    0.8676 H   0  0  0  0  0  0
   -0.3922   -0.4500   -0.8854 H   0  0  0  0  0  0
    1.8928    0.5065   -0.8820 H   0  0  0  0  0  0
    1.7405    1.8296    1.2102 H   0  0  0  0  0  0
    1.6639    0.3530    2.1617 H   0  0  0  0  0  0
    4.0249    1.2802    0.4387 H   0  0  0  0  0  0
    3.9606    1.3007    2.1981 H   0  0  0  0  0  0
    5.2203   -0.7087    1.3366 H   0  0  0  0  0  0
    3.7895   -1.1811    2.2475 H   0  0  0  0  0  0
    4.0061   -1.0279   -0.8074 H   0  0  0  0  0  0
    3.9529   -2.4956    0.1593 H   0  0  0  0  0  0
    1.6571   -1.9451    0.9192 H   0  0  0  0  0  0
    0.4706   -2.2395   -1.2357 H   0  0  0  0  0  0
    1.8935   -1.7265   -2.1224 H   0  0  0  0  0  0
    1.5399   -4.2421   -2.0753 H   0  0  0  0  0  0
    1.7759   -4.2264   -0.3227 H   0  0  0  0  0  0
    3.1078   -3.7969   -1.4030 H   0  0  0  0  0  0
  1  2  1  0  0  0
  1 11  1  0  0  0
  1 12  1  0  0  0
  1 13  1  0  0  0
  2  3  1  0  0  0
  2 14  1  0  0  0
  2 15  1  0  0  0
  3  8  1  0  0  0
  3  4  1  0  0  0
  3 16  1  0  0  0
  4  5  1  0  0  0
  4 17  1  0  0  0
  4 18  1  0  0  0
  5  6  1  0  0  0
  5 19  1  0  0  0
  5 20  1  0  0  0
  6  7  1  0  0  0
  6 21  1  0  0  0
  6 22  1  0  0  0
  7  8  1  0  0  0
  7 23  1  0  0  0
  7 24  1  0  0  0
  8  9  1  0  0  0
  8 25  1  0  0  0
  9 10  1  0  0  0
  9 26  1  0  0  0
  9 27  1  0  0  0
 10 28  1  0  0  0
 10 29  1  0  0  0
 10 30  1  0  0  0
M  END
>  <i_m_Spin_multiplicity> (1)
1

>  <s_j_Task> (1)
Single Point

>  <s_j_QM_Method> (1)
DFT(b3lyp-d3)

>  <s_j_QM_Basis> (1)
cc-pvtz(-f)

>  <i_j_Number_of_canonical_orbitals> (1)
405

>  <i_j_Geometry_convergence_category> (1)
0

>  <r_j_Gas_Phase_Energy> (1)
-393.289025084653

>  <r_j_Final_Energy> (1)
-393.289025084653

>  <r_j_HOMO> (1)
-0.291043511622538

>  <r_j_LUMO> (1)
0.025296265560262

>  <r_j_Polarizability> (1)
117.374589857073

>  <r_j_QM_Dipole_(debye)> (1)
0.0416666158123901

>  <r_j_QM_Dipole_X_(debye)> (1)
-0.0339525317910749

>  <r_j_QM_Dipole_Y_(debye)> (1)
-0.0118033255675543

>  <r_j_QM_Dipole_Z_(debye)> (1)
-0.0210716388489287

>  <r_j_Lowest_Frequency_(cm-1)> (1)
110.342856088107

>  <r_j_Highest_Frequency_(cm-1)> (1)
3061.1818894082

>  <r_j_2nd_Lowest_Frequency_(cm-1)> (1)
114.331984256841

>  <i_j_Num_Negative_Frequencies> (1)
0

>  <r_j_Zero_Point_Energy_(kcal/mol)> (1)
177.321521078316

>  <r_j_Entropy_(cal/mol/K)_298.15K_1.00E+00atm> (1)
98.8147670166037

>  <r_j_Enthalpy_(kcal/mol)_298.15K_1.00E+00atm> (1)
7.32069859317175

>  <r_j_Free_Energy_(kcal/mol)_298.15K_1.00E+00atm> (1)
-22.1409241928286

>  <r_j_Internal_Energy_(kcal/mol)_298.15K_1.00E+00atm> (1)
6.72821300434448

>  <r_j_Heat_Capacity_(cal/mol/K)_298.15K_1.00E+00atm> (1)
43.0319311623678

>  <r_j_ln(Q)_298.15K_1.00E+00atm> (1)
37.3695573535432

>  <r_j_Total_Internal_Energy_(au)_298.15K_1.00E+00atm> (1)
-392.995723161922

>  <r_j_Total_Enthalpy_(au)_298.15K_1.00E+00atm> (1)
-392.99477897603

>  <r_j_Total_Free_Energy_(au)_298.15K_1.00E+00atm> (1)
-393.041729060761

>  <r_lp_tautomer_probability> (1)
1

>  <r_epik_Ionization_Penalty> (1)
  0.0000

>  <r_epik_Ionization_Penalty_Charging> (1)
  0.0000

>  <r_epik_Ionization_Penalty_Neutral> (1)
  0.0000

>  <r_epik_State_Penalty> (1)
  0.0000

>  <r_epik_Charging_Adjusted_Penalty> (1)
0

>  <i_epik_Tot_Q> (1)
0

>  <i_epik_Tot_abs_Q> (1)
0

>  <s_lp_Force_Field> (1)
S-OPLS

>  <r_lp_Energy> (1)
14.8026

>  <b_lp_Chiralities_Consistent> (1)
1

$$$$
