5558_Tribromomethane
                    3D
 Schrodinger Suite 2021-3.
  5  4  0  0  1  0            999 V2000
    0.3969    0.0247   -0.0678 C   0  0  0  0  0  0
    0.4171    1.8438   -0.8742 Br  0  0  0  0  0  0
   -1.4673   -0.6372    0.1483 Br  0  0  0  0  0  0
    1.3644    0.0065    1.6711 Br  0  0  0  0  0  0
    0.9162   -0.6502   -0.7482 H   0  0  0  0  0  0
  1  2  1  0  0  0
  1  3  1  0  0  0
  1  4  1  0  0  0
  1  5  1  0  0  0
M  END
>  <s_lp_Force_Field> (1)
S-OPLS

>  <r_lp_Energy> (1)
0.010049

>  <b_lp_Chiralities_Consistent> (1)
1

>  <r_epik_Ionization_Penalty> (1)
  0.0000

>  <r_epik_Ionization_Penalty_Charging> (1)
  0.0000

>  <r_epik_Ionization_Penalty_Neutral> (1)
  0.0000

>  <r_epik_State_Penalty> (1)
  0.0000

>  <r_epik_Charging_Adjusted_Penalty> (1)
0

>  <i_epik_Tot_Q> (1)
0

>  <i_epik_Tot_abs_Q> (1)
0

>  <i_m_Spin_multiplicity> (1)
1

>  <s_j_Task> (1)
Single Point

>  <s_j_QM_Method> (1)
DFT(b3lyp-d3)

>  <s_j_QM_Basis> (1)
cc-pvtz(-f)

>  <i_j_Number_of_canonical_orbitals> (1)
140

>  <r_j_Gas_Phase_Energy> (1)
-7761.38953974815

>  <r_j_Final_Energy> (1)
-7761.38953974815

>  <r_j_HOMO> (1)
-0.290942123127937

>  <r_j_LUMO> (1)
-0.0979224384186178

>  <r_j_Polarizability> (1)
70.0322700926709

>  <r_j_QM_Dipole_(debye)> (1)
0.941876316080601

>  <r_j_QM_Dipole_X_(debye)> (1)
0.448626489306652

>  <r_j_QM_Dipole_Y_(debye)> (1)
-0.582801800241274

>  <r_j_QM_Dipole_Z_(debye)> (1)
-0.588393855781554

>  <r_j_Lowest_Frequency_(cm-1)> (1)
-1587.65049663004

>  <r_j_Highest_Frequency_(cm-1)> (1)
3098.07212622949

>  <r_j_2nd_Lowest_Frequency_(cm-1)> (1)
-882.617548299887

>  <i_j_Num_Negative_Frequencies> (1)
3

>  <r_j_Zero_Point_Energy_(kcal/mol)> (1)
10.6474423716604

>  <r_j_Entropy_(cal/mol/K)_298.15K_1.00E+00atm> (1)
73.9475447582256

>  <r_j_Enthalpy_(kcal/mol)_298.15K_1.00E+00atm> (1)
2.63318980737009

>  <r_j_Free_Energy_(kcal/mol)_298.15K_1.00E+00atm> (1)
-19.4142706622949

>  <r_j_Internal_Energy_(kcal/mol)_298.15K_1.00E+00atm> (1)
2.04070421854281

>  <r_j_Heat_Capacity_(cal/mol/K)_298.15K_1.00E+00atm> (1)
9.07575388784809

>  <r_j_ln(Q)_298.15K_1.00E+00atm> (1)
32.7674985322802

>  <r_j_Total_Internal_Energy_(au)_298.15K_1.00E+00atm> (1)
-7761.36931989937

>  <r_j_Total_Enthalpy_(au)_298.15K_1.00E+00atm> (1)
-7761.36837571348

>  <r_j_Total_Free_Energy_(au)_298.15K_1.00E+00atm> (1)
-7761.40351057841

>  <r_lp_tautomer_probability> (1)
1

$$$$
