5565_Triethylenetetramine
                    3D
 Schrodinger Suite 2021-3.
 31 30  0  0  1  0            999 V2000
   -2.2796    2.9624   -0.5008 C   0  0  0  0  0  0
   -1.8663    1.4945   -0.2718 C   0  0  0  0  0  0
   -0.3648    1.3242   -0.3122 N   0  3  1  0  0  0
    0.0997   -0.1383   -0.2303 C   0  0  0  0  0  0
    1.6165   -0.1860   -0.0505 C   0  0  0  0  0  0
    2.0135    0.5528    1.1635 N   0  0  0  0  0  0
    3.4836    0.6470    1.2918 C   0  0  0  0  0  0
    3.8502    1.4070    2.5749 C   0  0  0  0  0  0
    5.3576    1.4163    2.7916 N   0  3  1  0  0  0
   -3.7930    3.1002   -0.5408 N   0  3  1  0  0  0
   -1.9296    3.6190    0.3001 H   0  0  0  0  0  0
   -1.9137    3.3455   -1.4578 H   0  0  0  0  0  0
   -2.2024    1.1268    0.7019 H   0  0  0  0  0  0
   -2.2738    0.8413   -1.0496 H   0  0  0  0  0  0
    0.0186    1.7295   -1.1757 H   0  0  0  0  0  0
   -0.4282   -0.5797    0.6197 H   0  0  0  0  0  0
   -0.2166   -0.6391   -1.1478 H   0  0  0  0  0  0
    1.9057   -1.2476   -0.0451 H   0  0  0  0  0  0
    2.1128    0.2665   -0.9177 H   0  0  0  0  0  0
    1.6638    0.0347    1.9719 H   0  0  0  0  0  0
    3.9578   -0.3482    1.3000 H   0  0  0  0  0  0
    3.8717    1.1846    0.4188 H   0  0  0  0  0  0
    3.5299    2.4498    2.5375 H   0  0  0  0  0  0
    3.4228    0.9372    3.4647 H   0  0  0  0  0  0
    5.6035    1.9225    3.6535 H   0  0  0  0  0  0
    5.8620    1.8764    2.0225 H   0  0  0  0  0  0
   -4.0571    4.0858   -0.6952 H   0  0  0  0  0  0
   -4.2481    2.8115    0.3373 H   0  0  0  0  0  0
    5.7434    0.4670    2.8844 H   0  0  0  0  0  0
   -4.2257    2.5611   -1.3051 H   0  0  0  0  0  0
    0.1214    1.8006    0.4687 H   0  0  0  0  0  0
  1  2  1  0  0  0
  1 10  1  0  0  0
  1 11  1  0  0  0
  1 12  1  0  0  0
  2  3  1  0  0  0
  2 13  1  0  0  0
  2 14  1  0  0  0
  3  4  1  0  0  0
  3 15  1  0  0  0
  3 31  1  0  0  0
  4  5  1  0  0  0
  4 16  1  0  0  0
  4 17  1  0  0  0
  5  6  1  0  0  0
  5 18  1  0  0  0
  5 19  1  0  0  0
  6  7  1  0  0  0
  6 20  1  0  0  0
  7  8  1  0  0  0
  7 21  1  0  0  0
  7 22  1  0  0  0
  8  9  1  0  0  0
  8 23  1  0  0  0
  8 24  1  0  0  0
  9 25  1  0  0  0
  9 26  1  0  0  0
  9 29  1  0  0  0
 10 27  1  0  0  0
 10 28  1  0  0  0
 10 30  1  0  0  0
M  END
>  <i_m_Spin_multiplicity> (1)
1

>  <s_j_Task> (1)
Single Point

>  <s_j_QM_Method> (1)
DFT(b3lyp-d3)

>  <s_j_QM_Basis> (1)
cc-pvtz(-f)

>  <i_j_Number_of_canonical_orbitals> (1)
419

>  <i_j_Geometry_convergence_category> (1)
3

>  <r_j_Gas_Phase_Energy> (1)
-459.465344938511

>  <r_j_Final_Energy> (1)
-459.465344938511

>  <r_j_HOMO> (1)
-0.623888974930957

>  <r_j_LUMO> (1)
-0.375089155485915

>  <r_j_Polarizability> (1)
98.9979869371885

>  <r_j_QM_Dipole_(debye)> (1)
7.61295869426865

>  <r_j_QM_Dipole_X_(debye)> (1)
-4.5611117033108

>  <r_j_QM_Dipole_Y_(debye)> (1)
6.06382141251537

>  <r_j_QM_Dipole_Z_(debye)> (1)
0.619249535875439

>  <r_j_Lowest_Frequency_(cm-1)> (1)
49.2565520849085

>  <r_j_Highest_Frequency_(cm-1)> (1)
3410.06609377562

>  <r_j_2nd_Lowest_Frequency_(cm-1)> (1)
107.239173361983

>  <i_j_Num_Negative_Frequencies> (1)
0

>  <r_j_Zero_Point_Energy_(kcal/mol)> (1)
190.716330942007

>  <r_j_Entropy_(cal/mol/K)_298.15K_1.00E+00atm> (1)
108.628308767956

>  <r_j_Enthalpy_(kcal/mol)_298.15K_1.00E+00atm> (1)
8.40772664984085

>  <r_j_Free_Energy_(kcal/mol)_298.15K_1.00E+00atm> (1)
-23.9798036093254

>  <r_j_Internal_Energy_(kcal/mol)_298.15K_1.00E+00atm> (1)
7.81524106101358

>  <r_j_Heat_Capacity_(cal/mol/K)_298.15K_1.00E+00atm> (1)
46.1717790077068

>  <r_j_ln(Q)_298.15K_1.00E+00atm> (1)
40.4732267949155

>  <r_j_Total_Internal_Energy_(au)_298.15K_1.00E+00atm> (1)
-459.148964737901

>  <r_j_Total_Enthalpy_(au)_298.15K_1.00E+00atm> (1)
-459.148020552009

>  <r_j_Total_Free_Energy_(au)_298.15K_1.00E+00atm> (1)
-459.199633367126

>  <r_epik_Ionization_Penalty> (1)
  0.4750

>  <r_epik_Ionization_Penalty_Charging> (1)
  0.4705

>  <r_epik_Ionization_Penalty_Neutral> (1)
  0.0045

>  <r_epik_State_Penalty> (1)
  0.4334

>  <r_epik_Charging_Adjusted_Penalty> (1)
0.903916995559048

>  <i_epik_Tot_Q> (1)
3

>  <i_epik_Tot_abs_Q> (1)
3

>  <s_lp_Force_Field> (1)
S-OPLS

>  <r_lp_Energy> (1)
30.936067

>  <b_lp_Chiralities_Consistent> (1)
1

$$$$
