5569_Trifluralin
                    3D
 Schrodinger Suite 2021-3.
 39 39  0  0  1  0            999 V2000
   -2.4042   -2.8023   -1.2174 C   0  0  0  0  0  0
   -1.6570   -1.4658   -1.2083 C   0  0  0  0  0  0
   -0.8130   -1.3033    0.0641 C   0  0  0  0  0  0
   -0.0547   -0.0494    0.0579 N   0  0  0  0  0  0
   -0.8391    1.1934    0.0648 C   0  0  0  0  0  0
   -0.2177    2.3053    0.9190 C   0  0  0  0  0  0
   -1.1599    3.5063    1.0338 C   0  0  0  0  0  0
    1.3153   -0.0515    0.0493 C   0  0  0  0  0  0
    2.0905   -0.8767    0.9091 C   0  0  0  0  0  0
    3.4786   -0.9025    0.9023 C   0  0  0  0  0  0
    4.1839   -0.0173    0.0896 C   0  0  0  0  0  0
    3.4808    0.8486   -0.7430 C   0  0  0  0  0  0
    2.0943    0.7870   -0.7913 C   0  0  0  0  0  0
    1.4611    1.5880   -1.8492 N   0  3  1  0  0  0
    1.8872    2.7297   -2.0230 O   0  0  0  0  0  0
    0.5801    1.0542   -2.5220 O   0  5  0  0  0  0
    5.6887   -0.0138    0.0827 C   0  0  0  0  0  0
    6.1866   -0.8020   -0.8968 F   0  0  0  0  0  0
    6.1738    1.2296   -0.1256 F   0  0  0  0  0  0
    6.1906   -0.4657    1.2519 F   0  0  0  0  0  0
    1.4491   -1.6495    1.9889 N   0  3  1  0  0  0
    0.5331   -1.1150    2.6110 O   0  0  0  0  0  0
    1.9088   -2.7652    2.2289 O   0  5  0  0  0  0
   -3.0091   -2.9076   -2.1227 H   0  0  0  0  0  0
   -3.0752   -2.8887   -0.3553 H   0  0  0  0  0  0
   -1.7077   -3.6477   -1.1813 H   0  0  0  0  0  0
   -0.9952   -1.3805   -2.0773 H   0  0  0  0  0  0
   -2.3748   -0.6410   -1.2845 H   0  0  0  0  0  0
   -1.4415   -1.3542    0.9629 H   0  0  0  0  0  0
   -0.1109   -2.1398    0.1201 H   0  0  0  0  0  0
   -1.0450    1.5528   -0.9513 H   0  0  0  0  0  0
   -1.8058    0.9244    0.5047 H   0  0  0  0  0  0
    0.0103    1.8919    1.9084 H   0  0  0  0  0  0
    0.7311    2.6413    0.4884 H   0  0  0  0  0  0
   -0.7078    4.2997    1.6355 H   0  0  0  0  0  0
   -2.1083    3.2271    1.5061 H   0  0  0  0  0  0
   -1.3862    3.9251    0.0471 H   0  0  0  0  0  0
    3.9961   -1.5671    1.5830 H   0  0  0  0  0  0
    3.9989    1.5495   -1.3866 H   0  0  0  0  0  0
  1  2  1  0  0  0
  1 24  1  0  0  0
  1 25  1  0  0  0
  1 26  1  0  0  0
  2  3  1  0  0  0
  2 27  1  0  0  0
  2 28  1  0  0  0
  3  4  1  0  0  0
  3 29  1  0  0  0
  3 30  1  0  0  0
  4  5  1  0  0  0
  4  8  1  0  0  0
  5  6  1  0  0  0
  5 31  1  0  0  0
  5 32  1  0  0  0
  6  7  1  0  0  0
  6 33  1  0  0  0
  6 34  1  0  0  0
  7 35  1  0  0  0
  7 36  1  0  0  0
  7 37  1  0  0  0
  8 13  1  0  0  0
  8  9  2  0  0  0
  9 10  1  0  0  0
  9 21  1  0  0  0
 10 11  2  0  0  0
 10 38  1  0  0  0
 11 12  1  0  0  0
 11 17  1  0  0  0
 12 13  2  0  0  0
 12 39  1  0  0  0
 13 14  1  0  0  0
 14 15  2  0  0  0
 14 16  1  0  0  0
 17 18  1  0  0  0
 17 19  1  0  0  0
 17 20  1  0  0  0
 21 22  2  0  0  0
 21 23  1  0  0  0
M  END
>  <i_m_Spin_multiplicity> (1)
1

>  <s_j_Task> (1)
Single Point

>  <s_j_QM_Method> (1)
DFT(b3lyp-d3)

>  <s_j_QM_Basis> (1)
cc-pvtz(-f)

>  <i_j_Number_of_canonical_orbitals> (1)
665

>  <i_j_Geometry_convergence_category> (1)
0

>  <r_j_Gas_Phase_Energy> (1)
-1269.96832845074

>  <r_j_Final_Energy> (1)
-1269.96832845074

>  <r_j_HOMO> (1)
-0.243133389161275

>  <r_j_LUMO> (1)
-0.122150314441675

>  <r_j_Polarizability> (1)
198.862251700627

>  <r_j_QM_Dipole_(debye)> (1)
2.28398987455444

>  <r_j_QM_Dipole_X_(debye)> (1)
-2.27758447893474

>  <r_j_QM_Dipole_Y_(debye)> (1)
0.165792223234652

>  <r_j_QM_Dipole_Z_(debye)> (1)
-0.0416128237169365

>  <r_j_Lowest_Frequency_(cm-1)> (1)
35.6354989327348

>  <r_j_Highest_Frequency_(cm-1)> (1)
3182.40806534709

>  <r_j_2nd_Lowest_Frequency_(cm-1)> (1)
40.0401613882806

>  <i_j_Num_Negative_Frequencies> (1)
0

>  <r_j_Zero_Point_Energy_(kcal/mol)> (1)
185.810783021055

>  <r_j_Entropy_(cal/mol/K)_298.15K_1.00E+00atm> (1)
149.527908945896

>  <r_j_Enthalpy_(kcal/mol)_298.15K_1.00E+00atm> (1)
14.0411721368087

>  <r_j_Free_Energy_(kcal/mol)_298.15K_1.00E+00atm> (1)
-30.5405739154101

>  <r_j_Internal_Energy_(kcal/mol)_298.15K_1.00E+00atm> (1)
13.4486865479815

>  <r_j_Heat_Capacity_(cal/mol/K)_298.15K_1.00E+00atm> (1)
81.2760542299673

>  <r_j_ln(Q)_298.15K_1.00E+00atm> (1)
51.5465261794131

>  <r_j_Total_Internal_Energy_(au)_298.15K_1.00E+00atm> (1)
-1269.65078827152

>  <r_j_Total_Enthalpy_(au)_298.15K_1.00E+00atm> (1)
-1269.64984408563

>  <r_j_Total_Free_Energy_(au)_298.15K_1.00E+00atm> (1)
-1269.72088962069

>  <r_lp_tautomer_probability> (1)
1

>  <r_epik_Ionization_Penalty> (1)
  0.0000

>  <r_epik_Ionization_Penalty_Charging> (1)
  0.0000

>  <r_epik_Ionization_Penalty_Neutral> (1)
  0.0000

>  <r_epik_State_Penalty> (1)
  0.0000

>  <r_epik_Charging_Adjusted_Penalty> (1)
0

>  <i_epik_Tot_Q> (1)
0

>  <i_epik_Tot_abs_Q> (1)
4

>  <s_lp_Force_Field> (1)
S-OPLS

>  <r_lp_Energy> (1)
46.187124

>  <b_lp_Chiralities_Consistent> (1)
1

$$$$
