557529_Tetracosanal
                    3D
 Schrodinger Suite 2021-3.
 73 72  0  0  1  0            999 V2000
   -3.1991   11.5715   -5.6580 C   0  0  0  0  0  0
   -2.7400   10.1163   -5.5270 C   0  0  0  0  0  0
   -3.0792    9.4968   -4.1657 C   0  0  0  0  0  0
   -2.6187    8.0411   -4.0326 C   0  0  0  0  0  0
   -2.9544    7.4063   -2.6780 C   0  0  0  0  0  0
   -2.4794    5.9534   -2.5640 C   0  0  0  0  0  0
   -2.8067    5.2944   -1.2190 C   0  0  0  0  0  0
   -2.3082    3.8473   -1.1285 C   0  0  0  0  0  0
   -2.6207    3.1702    0.2125 C   0  0  0  0  0  0
   -2.1839    1.6980    0.2905 C   0  0  0  0  0  0
   -0.6655    1.4870    0.2206 C   0  0  0  0  0  0
   -0.2525    0.0120    0.3224 C   0  0  0  0  0  0
    1.2606   -0.2239    0.1866 C   0  0  0  0  0  0
    2.0903    0.2998    1.3664 C   0  0  0  0  0  0
    3.6013    0.1303    1.1684 C   0  0  0  0  0  0
    4.4191    0.5897    2.3829 C   0  0  0  0  0  0
    5.9424    0.5107    2.1958 C   0  0  0  0  0  0
    6.5009    1.5137    1.1771 C   0  0  0  0  0  0
    8.0311    1.5007    1.0872 C   0  0  0  0  0  0
    8.5857    2.5407    0.1069 C   0  0  0  0  0  0
   10.1167    2.5593    0.0423 C   0  0  0  0  0  0
   10.6649    3.6348   -0.9026 C   0  0  0  0  0  0
   12.2044    3.6559   -0.9514 C   0  0  0  0  0  0
   12.7173    4.7968   -1.7975 C   0  0  0  0  0  0
   13.4135    4.6730   -2.7808 O   0  0  0  0  0  0
   -2.9452   11.9874   -6.6387 H   0  0  0  0  0  0
   -2.7288   12.2033   -4.8957 H   0  0  0  0  0  0
   -4.2847   11.6552   -5.5309 H   0  0  0  0  0  0
   -3.1990    9.5127   -6.3221 H   0  0  0  0  0  0
   -1.6551   10.0567   -5.6901 H   0  0  0  0  0  0
   -2.6211   10.0993   -3.3680 H   0  0  0  0  0  0
   -4.1650    9.5532   -4.0013 H   0  0  0  0  0  0
   -3.0740    7.4426   -4.8349 H   0  0  0  0  0  0
   -1.5328    7.9887   -4.1973 H   0  0  0  0  0  0
   -2.5015    8.0027   -1.8729 H   0  0  0  0  0  0
   -4.0405    7.4501   -2.5131 H   0  0  0  0  0  0
   -2.9280    5.3615   -3.3748 H   0  0  0  0  0  0
   -1.3930    5.9152   -2.7297 H   0  0  0  0  0  0
   -2.3621    5.8848   -0.4050 H   0  0  0  0  0  0
   -3.8933    5.3199   -1.0533 H   0  0  0  0  0  0
   -2.7558    3.2577   -1.9420 H   0  0  0  0  0  0
   -1.2253    3.8368   -1.3086 H   0  0  0  0  0  0
   -2.1413    3.7353    1.0250 H   0  0  0  0  0  0
   -3.7018    3.2326    0.3970 H   0  0  0  0  0  0
   -2.5589    1.2617    1.2263 H   0  0  0  0  0  0
   -2.6664    1.1346   -0.5214 H   0  0  0  0  0  0
   -0.2743    1.8934   -0.7213 H   0  0  0  0  0  0
   -0.1915    2.0685    1.0226 H   0  0  0  0  0  0
   -0.6035   -0.4030    1.2783 H   0  0  0  0  0  0
   -0.7741   -0.5524   -0.4624 H   0  0  0  0  0  0
    1.4511   -1.2997    0.0731 H   0  0  0  0  0  0
    1.6146    0.2453   -0.7430 H   0  0  0  0  0  0
    1.8765    1.3636    1.5331 H   0  0  0  0  0  0
    1.7778   -0.2193    2.2842 H   0  0  0  0  0  0
    3.8317   -0.9237    0.9557 H   0  0  0  0  0  0
    3.9041    0.6930    0.2755 H   0  0  0  0  0  0
    4.1435    1.6243    2.6345 H   0  0  0  0  0  0
    4.1305   -0.0186    3.2506 H   0  0  0  0  0  0
    6.4292    0.6879    3.1645 H   0  0  0  0  0  0
    6.2236   -0.5095    1.8973 H   0  0  0  0  0  0
    6.0825    1.3138    0.1820 H   0  0  0  0  0  0
    6.1647    2.5247    1.4499 H   0  0  0  0  0  0
    8.4548    1.6831    2.0853 H   0  0  0  0  0  0
    8.3734    0.4988    0.7914 H   0  0  0  0  0  0
    8.1798    2.3512   -0.8969 H   0  0  0  0  0  0
    8.2241    3.5379    0.3964 H   0  0  0  0  0  0
   10.5219    2.7253    1.0506 H   0  0  0  0  0  0
   10.4838    1.5735   -0.2748 H   0  0  0  0  0  0
   10.2736    3.4717   -1.9152 H   0  0  0  0  0  0
   10.2956    4.6199   -0.5846 H   0  0  0  0  0  0
   12.5923    3.7919    0.0693 H   0  0  0  0  0  0
   12.6062    2.7187   -1.3487 H   0  0  0  0  0  0
   12.3886    5.8080   -1.4564 H   0  0  0  0  0  0
  1  2  1  0  0  0
  1 26  1  0  0  0
  1 27  1  0  0  0
  1 28  1  0  0  0
  2  3  1  0  0  0
  2 29  1  0  0  0
  2 30  1  0  0  0
  3  4  1  0  0  0
  3 31  1  0  0  0
  3 32  1  0  0  0
  4  5  1  0  0  0
  4 33  1  0  0  0
  4 34  1  0  0  0
  5  6  1  0  0  0
  5 35  1  0  0  0
  5 36  1  0  0  0
  6  7  1  0  0  0
  6 37  1  0  0  0
  6 38  1  0  0  0
  7  8  1  0  0  0
  7 39  1  0  0  0
  7 40  1  0  0  0
  8  9  1  0  0  0
  8 41  1  0  0  0
  8 42  1  0  0  0
  9 10  1  0  0  0
  9 43  1  0  0  0
  9 44  1  0  0  0
 10 11  1  0  0  0
 10 45  1  0  0  0
 10 46  1  0  0  0
 11 12  1  0  0  0
 11 47  1  0  0  0
 11 48  1  0  0  0
 12 13  1  0  0  0
 12 49  1  0  0  0
 12 50  1  0  0  0
 13 14  1  0  0  0
 13 51  1  0  0  0
 13 52  1  0  0  0
 14 15  1  0  0  0
 14 53  1  0  0  0
 14 54  1  0  0  0
 15 16  1  0  0  0
 15 55  1  0  0  0
 15 56  1  0  0  0
 16 17  1  0  0  0
 16 57  1  0  0  0
 16 58  1  0  0  0
 17 18  1  0  0  0
 17 59  1  0  0  0
 17 60  1  0  0  0
 18 19  1  0  0  0
 18 61  1  0  0  0
 18 62  1  0  0  0
 19 20  1  0  0  0
 19 63  1  0  0  0
 19 64  1  0  0  0
 20 21  1  0  0  0
 20 65  1  0  0  0
 20 66  1  0  0  0
 21 22  1  0  0  0
 21 67  1  0  0  0
 21 68  1  0  0  0
 22 23  1  0  0  0
 22 69  1  0  0  0
 22 70  1  0  0  0
 23 24  1  0  0  0
 23 71  1  0  0  0
 23 72  1  0  0  0
 24 25  2  0  0  0
 24 73  1  0  0  0
M  END
>  <i_m_Spin_multiplicity> (1)
1

>  <s_j_Task> (1)
Single Point

>  <s_j_QM_Method> (1)
DFT(b3lyp-d3)

>  <s_j_QM_Basis> (1)
cc-pvtz(-f)

>  <i_j_Number_of_canonical_orbitals> (1)
1000

>  <i_j_Geometry_convergence_category> (1)
3

>  <r_j_Gas_Phase_Energy> (1)
-1019.13570955676

>  <r_j_Final_Energy> (1)
-1019.13570955676

>  <r_j_HOMO> (1)
-0.225136970658082

>  <r_j_LUMO> (1)
-0.000836996442169875

>  <r_j_Polarizability> (1)
300.049333707382

>  <r_j_QM_Dipole_(debye)> (1)
3.15462666512676

>  <r_j_QM_Dipole_X_(debye)> (1)
-2.04258635643233

>  <r_j_QM_Dipole_Y_(debye)> (1)
-0.530381293772161

>  <r_j_QM_Dipole_Z_(debye)> (1)
2.34482537858618

>  <r_j_Lowest_Frequency_(cm-1)> (1)
11.7683480562681

>  <r_j_Highest_Frequency_(cm-1)> (1)
3049.8469851384

>  <r_j_2nd_Lowest_Frequency_(cm-1)> (1)
28.0417512511133

>  <i_j_Num_Negative_Frequencies> (1)
0

>  <r_j_Zero_Point_Energy_(kcal/mol)> (1)
428.372126265902

>  <r_j_Entropy_(cal/mol/K)_298.15K_1.00E+00atm> (1)
189.342323849271

>  <r_j_Enthalpy_(kcal/mol)_298.15K_1.00E+00atm> (1)
19.5095778088324

>  <r_j_Free_Energy_(kcal/mol)_298.15K_1.00E+00atm> (1)
-36.9428360468278

>  <r_j_Internal_Energy_(kcal/mol)_298.15K_1.00E+00atm> (1)
18.9170922200051

>  <r_j_Heat_Capacity_(cal/mol/K)_298.15K_1.00E+00atm> (1)
115.075991869803

>  <r_j_ln(Q)_298.15K_1.00E+00atm> (1)
62.3522947114206

>  <r_j_Total_Internal_Energy_(au)_298.15K_1.00E+00atm> (1)
-1018.42290881052

>  <r_j_Total_Enthalpy_(au)_298.15K_1.00E+00atm> (1)
-1018.42196462463

>  <r_j_Total_Free_Energy_(au)_298.15K_1.00E+00atm> (1)
-1018.51192727309

>  <r_lp_tautomer_probability> (1)
1

>  <r_epik_Ionization_Penalty> (1)
  0.0000

>  <r_epik_Ionization_Penalty_Charging> (1)
  0.0000

>  <r_epik_Ionization_Penalty_Neutral> (1)
  0.0000

>  <r_epik_State_Penalty> (1)
  0.0000

>  <r_epik_Charging_Adjusted_Penalty> (1)
0

>  <i_epik_Tot_Q> (1)
0

>  <i_epik_Tot_abs_Q> (1)
0

>  <s_lp_Force_Field> (1)
S-OPLS

>  <r_lp_Energy> (1)
13.065357

>  <b_lp_Chiralities_Consistent> (1)
1

$$$$
