557966_Dehydrojuvabione
                    3D
 Schrodinger Suite 2021-3.
 43 43  0  0  1  0            999 V2000
   -1.3147   -0.9159    1.1067 C   0  0  0  0  0  0
   -0.3901   -0.1244    0.1647 C   0  0  0  0  0  0
    1.0621   -0.2690    0.6441 C   0  0  0  0  0  0
    1.6638   -1.6593    0.4260 C   0  0  0  0  0  0
    1.0627   -2.5117   -0.2198 O   0  0  0  0  0  0
    3.0055   -1.8486    1.0260 C   0  0  0  0  0  0
    3.7552   -2.9725    1.0451 C   0  0  0  0  0  0
    5.1084   -2.9639    1.7094 C   0  0  0  0  0  0
    3.3553   -4.2932    0.4460 C   0  0  0  0  0  0
   -0.8046    1.3619    0.0312 C   0  0  0  0  0  0
   -0.0433    2.1040   -1.0840 C   0  0  0  0  0  0
   -0.3607    3.6061   -1.0992 C   0  0  0  0  0  0
   -1.8484    3.8592   -1.0178 C   0  0  0  0  0  0
   -2.7144    2.9038   -0.6443 C   0  0  0  0  0  0
   -2.3160    1.5179   -0.2310 C   0  0  0  0  0  0
   -2.4062    5.1982   -1.3547 C   0  0  0  0  0  0
   -3.5834    5.5074   -1.3338 O   0  0  0  0  0  0
   -1.4273    6.0753   -1.6969 O   0  0  0  0  0  0
   -1.8869    7.3931   -2.0344 C   0  0  0  0  0  0
   -1.3565   -0.4455    2.0975 H   0  0  0  0  0  0
   -0.9470   -1.9374    1.2247 H   0  0  0  0  0  0
   -2.3359   -0.9817    0.7226 H   0  0  0  0  0  0
   -0.4542   -0.5854   -0.8302 H   0  0  0  0  0  0
    1.7337    0.4346    0.1335 H   0  0  0  0  0  0
    1.1410   -0.0143    1.7113 H   0  0  0  0  0  0
    3.4144   -0.9622    1.5088 H   0  0  0  0  0  0
    5.8860   -3.2608    0.9939 H   0  0  0  0  0  0
    5.1406   -3.6999    2.5230 H   0  0  0  0  0  0
    5.3709   -1.9848    2.1181 H   0  0  0  0  0  0
    3.4320   -5.0824    1.2050 H   0  0  0  0  0  0
    4.0628   -4.5632   -0.3493 H   0  0  0  0  0  0
    2.3504   -4.2730    0.0324 H   0  0  0  0  0  0
   -0.5827    1.8653    0.9857 H   0  0  0  0  0  0
    1.0386    1.9705   -0.9880 H   0  0  0  0  0  0
   -0.3273    1.6630   -2.0492 H   0  0  0  0  0  0
    0.1425    4.1109   -0.2624 H   0  0  0  0  0  0
    0.0430    4.0710   -2.0046 H   0  0  0  0  0  0
   -3.7733    3.1516   -0.6325 H   0  0  0  0  0  0
   -2.6317    0.8103   -1.0150 H   0  0  0  0  0  0
   -2.8946    1.2392    0.6575 H   0  0  0  0  0  0
   -0.9920    7.9654   -2.2801 H   0  0  0  0  0  0
   -2.4145    7.8461   -1.1906 H   0  0  0  0  0  0
   -2.5678    7.3572   -2.8892 H   0  0  0  0  0  0
  1  2  1  0  0  0
  1 20  1  0  0  0
  1 21  1  0  0  0
  1 22  1  0  0  0
  2  3  1  0  0  0
  2 10  1  0  0  0
  2 23  1  0  0  0
  3  4  1  0  0  0
  3 24  1  0  0  0
  3 25  1  0  0  0
  4  5  2  0  0  0
  4  6  1  0  0  0
  6  7  2  0  0  0
  6 26  1  0  0  0
  7  8  1  0  0  0
  7  9  1  0  0  0
  8 27  1  0  0  0
  8 28  1  0  0  0
  8 29  1  0  0  0
  9 30  1  0  0  0
  9 31  1  0  0  0
  9 32  1  0  0  0
 10 15  1  0  0  0
 10 11  1  0  0  0
 10 33  1  0  0  0
 11 12  1  0  0  0
 11 34  1  0  0  0
 11 35  1  0  0  0
 12 13  1  0  0  0
 12 36  1  0  0  0
 12 37  1  0  0  0
 13 14  2  0  0  0
 13 16  1  0  0  0
 14 15  1  0  0  0
 14 38  1  0  0  0
 15 39  1  0  0  0
 15 40  1  0  0  0
 16 17  2  0  0  0
 16 18  1  0  0  0
 18 19  1  0  0  0
 19 41  1  0  0  0
 19 42  1  0  0  0
 19 43  1  0  0  0
M  END
>  <i_m_Spin_multiplicity> (1)
1

>  <s_j_Task> (1)
Single Point

>  <s_j_QM_Method> (1)
DFT(b3lyp-d3)

>  <s_j_QM_Basis> (1)
cc-pvtz(-f)

>  <i_j_Number_of_canonical_orbitals> (1)
645

>  <i_j_Geometry_convergence_category> (1)
3

>  <r_j_Gas_Phase_Energy> (1)
-850.152443866883

>  <r_j_Final_Energy> (1)
-850.152443866883

>  <r_j_HOMO> (1)
-0.233313448619864

>  <r_j_LUMO> (1)
-0.0740319238942367

>  <r_j_Polarizability> (1)
203.910868632348

>  <r_j_QM_Dipole_(debye)> (1)
4.37773822036908

>  <r_j_QM_Dipole_X_(debye)> (1)
4.1226249339891

>  <r_j_QM_Dipole_Y_(debye)> (1)
-0.226828118457254

>  <r_j_QM_Dipole_Z_(debye)> (1)
1.45502734833706

>  <r_j_Lowest_Frequency_(cm-1)> (1)
41.2755322112417

>  <r_j_Highest_Frequency_(cm-1)> (1)
3134.16036505187

>  <r_j_2nd_Lowest_Frequency_(cm-1)> (1)
58.4432961118621

>  <i_j_Num_Negative_Frequencies> (1)
0

>  <r_j_Zero_Point_Energy_(kcal/mol)> (1)
233.671315277454

>  <r_j_Entropy_(cal/mol/K)_298.15K_1.00E+00atm> (1)
140.353119504744

>  <r_j_Enthalpy_(kcal/mol)_298.15K_1.00E+00atm> (1)
12.9049538429014

>  <r_j_Free_Energy_(kcal/mol)_298.15K_1.00E+00atm> (1)
-28.9413287374381

>  <r_j_Internal_Energy_(kcal/mol)_298.15K_1.00E+00atm> (1)
12.3124682540741

>  <r_j_Heat_Capacity_(cal/mol/K)_298.15K_1.00E+00atm> (1)
76.368830718937

>  <r_j_ln(Q)_298.15K_1.00E+00atm> (1)
48.8473125476732

>  <r_j_Total_Internal_Energy_(au)_298.15K_1.00E+00atm> (1)
-849.760443753273

>  <r_j_Total_Enthalpy_(au)_298.15K_1.00E+00atm> (1)
-849.759499567381

>  <r_j_Total_Free_Energy_(au)_298.15K_1.00E+00atm> (1)
-849.826185863893

>  <r_lp_tautomer_probability> (1)
1

>  <r_epik_Ionization_Penalty> (1)
  0.0000

>  <r_epik_Ionization_Penalty_Charging> (1)
  0.0000

>  <r_epik_Ionization_Penalty_Neutral> (1)
  0.0000

>  <r_epik_State_Penalty> (1)
  0.0000

>  <r_epik_Charging_Adjusted_Penalty> (1)
0

>  <i_epik_Tot_Q> (1)
0

>  <i_epik_Tot_abs_Q> (1)
0

>  <s_lp_Force_Field> (1)
S-OPLS

>  <r_lp_Energy> (1)
13.2358

>  <b_lp_Chiralities_Consistent> (1)
1

>  <s_epik_Chemistry_Notes> (1)
This compound has an ester and may undergo hydrolysis at high or low pH.

$$$$
