568_Dibenzofuran
                    3D
 Schrodinger Suite 2021-3.
 21 23  0  0  1  0            999 V2000
   -1.2146   -2.0452    0.1938 C   0  0  0  0  0  0
   -1.2338   -0.6437    0.1033 C   0  0  0  0  0  0
   -2.4337    0.0697    0.1129 C   0  0  0  0  0  0
   -3.5990   -0.6754    0.2160 C   0  0  0  0  0  0
   -3.6110   -2.0801    0.3084 C   0  0  0  0  0  0
   -2.3974   -2.7745    0.2968 C   0  0  0  0  0  0
   -5.0109   -2.4483    0.3983 C   0  0  0  0  0  0
   -5.7198   -3.6484    0.5104 C   0  0  0  0  0  0
   -7.1108   -3.5959    0.5727 C   0  0  0  0  0  0
   -7.7919   -2.3686    0.5246 C   0  0  0  0  0  0
   -7.1044   -1.1588    0.4128 C   0  0  0  0  0  0
   -5.7208   -1.2335    0.3523 C   0  0  0  0  0  0
   -4.8733   -0.1534    0.2417 O   0  0  0  0  0  0
   -0.2619   -2.5656    0.1831 H   0  0  0  0  0  0
   -0.2964   -0.1016    0.0240 H   0  0  0  0  0  0
   -2.4642    1.1511    0.0439 H   0  0  0  0  0  0
   -2.3792   -3.8579    0.3667 H   0  0  0  0  0  0
   -5.1962   -4.5988    0.5479 H   0  0  0  0  0  0
   -7.6796   -4.5165    0.6600 H   0  0  0  0  0  0
   -8.8765   -2.3582    0.5752 H   0  0  0  0  0  0
   -7.6165   -0.2040    0.3745 H   0  0  0  0  0  0
  1  6  1  0  0  0
  1  2  2  0  0  0
  1 14  1  0  0  0
  2  3  1  0  0  0
  2 15  1  0  0  0
  3  4  2  0  0  0
  3 16  1  0  0  0
  4 13  1  0  0  0
  4  5  1  0  0  0
  5  6  2  0  0  0
  5  7  1  0  0  0
  6 17  1  0  0  0
  7 12  1  0  0  0
  7  8  2  0  0  0
  8  9  1  0  0  0
  8 18  1  0  0  0
  9 10  2  0  0  0
  9 19  1  0  0  0
 10 11  1  0  0  0
 10 20  1  0  0  0
 11 12  2  0  0  0
 11 21  1  0  0  0
 12 13  1  0  0  0
M  END
>  <i_m_Spin_multiplicity> (1)
1

>  <s_j_Task> (1)
Single Point

>  <s_j_QM_Method> (1)
DFT(b3lyp-d3)

>  <s_j_QM_Basis> (1)
cc-pvtz(-f)

>  <i_j_Number_of_canonical_orbitals> (1)
362

>  <i_j_Geometry_convergence_category> (1)
0

>  <r_j_Gas_Phase_Energy> (1)
-537.505715861685

>  <r_j_Final_Energy> (1)
-537.505715861685

>  <r_j_HOMO> (1)
-0.242392785063521

>  <r_j_LUMO> (1)
-0.0604724853262398

>  <r_j_Polarizability> (1)
138.448675236628

>  <r_j_QM_Dipole_(debye)> (1)
0.652473227762588

>  <r_j_QM_Dipole_X_(debye)> (1)
0.167572313720485

>  <r_j_QM_Dipole_Y_(debye)> (1)
-0.629660529337247

>  <r_j_QM_Dipole_Z_(debye)> (1)
0.0341826039972232

>  <r_j_Lowest_Frequency_(cm-1)> (1)
122.539694233644

>  <r_j_Highest_Frequency_(cm-1)> (1)
3164.58710343425

>  <r_j_2nd_Lowest_Frequency_(cm-1)> (1)
167.752226687214

>  <i_j_Num_Negative_Frequencies> (1)
0

>  <r_j_Zero_Point_Energy_(kcal/mol)> (1)
102.488103602092

>  <r_j_Entropy_(cal/mol/K)_298.15K_1.00E+00atm> (1)
90.1225346705466

>  <r_j_Enthalpy_(kcal/mol)_298.15K_1.00E+00atm> (1)
5.85554921144519

>  <r_j_Free_Energy_(kcal/mol)_298.15K_1.00E+00atm> (1)
-21.0144845005783

>  <r_j_Internal_Energy_(kcal/mol)_298.15K_1.00E+00atm> (1)
5.26306362261792

>  <r_j_Heat_Capacity_(cal/mol/K)_298.15K_1.00E+00atm> (1)
36.0478854256981

>  <r_j_ln(Q)_298.15K_1.00E+00atm> (1)
35.4683470735093

>  <r_j_Total_Internal_Energy_(au)_298.15K_1.00E+00atm> (1)
-537.334003445577

>  <r_j_Total_Enthalpy_(au)_298.15K_1.00E+00atm> (1)
-537.333059259684

>  <r_j_Total_Free_Energy_(au)_298.15K_1.00E+00atm> (1)
-537.375879384315

>  <r_lp_tautomer_probability> (1)
1

>  <r_epik_Ionization_Penalty> (1)
  0.0000

>  <r_epik_Ionization_Penalty_Charging> (1)
  0.0000

>  <r_epik_Ionization_Penalty_Neutral> (1)
  0.0000

>  <r_epik_State_Penalty> (1)
  0.0000

>  <r_epik_Charging_Adjusted_Penalty> (1)
0

>  <i_epik_Tot_Q> (1)
0

>  <i_epik_Tot_abs_Q> (1)
0

>  <s_lp_Force_Field> (1)
S-OPLS

>  <r_lp_Energy> (1)
20.749

>  <b_lp_Chiralities_Consistent> (1)
1

$$$$
