5897_2-Acetylaminofluorene
                    3D
 Schrodinger Suite 2021-3.
 30 32  0  0  1  0            999 V2000
   -0.0843    0.0699   -0.0012 C   0  0  0  0  0  0
    1.4289    0.0198    0.1635 C   0  0  0  0  0  0
    1.9919   -1.0049    0.5208 O   0  0  0  0  0  0
    2.0748    1.2027   -0.1238 N   0  0  0  0  0  0
    3.4552    1.4971   -0.0922 C   0  0  0  0  0  0
    3.8387    2.8008   -0.4593 C   0  0  0  0  0  0
    5.1795    3.1455   -0.4448 C   0  0  0  0  0  0
    6.1571    2.2048   -0.0664 C   0  0  0  0  0  0
    5.7747    0.9143    0.2968 C   0  0  0  0  0  0
    4.4287    0.5552    0.2858 C   0  0  0  0  0  0
    7.4760    2.8393   -0.1430 C   0  0  0  0  0  0
    8.7487    2.3341    0.1280 C   0  0  0  0  0  0
    9.8526    3.1733   -0.0311 C   0  0  0  0  0  0
    9.6877    4.4964   -0.4541 C   0  0  0  0  0  0
    8.4119    5.0039   -0.7259 C   0  0  0  0  0  0
    7.3101    4.1729   -0.5693 C   0  0  0  0  0  0
    5.8386    4.4657   -0.7925 C   0  0  0  0  0  0
   -0.4816    1.0525   -0.2718 H   0  0  0  0  0  0
   -0.5415   -0.2528    0.9376 H   0  0  0  0  0  0
   -0.3722   -0.6530   -0.7696 H   0  0  0  0  0  0
    1.4869    1.9678   -0.4189 H   0  0  0  0  0  0
    3.0838    3.5286   -0.7515 H   0  0  0  0  0  0
    6.5186    0.1797    0.5908 H   0  0  0  0  0  0
    4.1157   -0.4401    0.5646 H   0  0  0  0  0  0
    8.8786    1.3068    0.4568 H   0  0  0  0  0  0
   10.8501    2.7958    0.1755 H   0  0  0  0  0  0
   10.5581    5.1354   -0.5724 H   0  0  0  0  0  0
    8.2896    6.0328   -1.0542 H   0  0  0  0  0  0
    5.6333    4.7657   -1.8282 H   0  0  0  0  0  0
    5.4818    5.2830   -0.1526 H   0  0  0  0  0  0
  1  2  1  0  0  0
  1 18  1  0  0  0
  1 19  1  0  0  0
  1 20  1  0  0  0
  2  3  2  0  0  0
  2  4  1  0  0  0
  4  5  1  0  0  0
  4 21  1  0  0  0
  5 10  1  0  0  0
  5  6  2  0  0  0
  6  7  1  0  0  0
  6 22  1  0  0  0
  7 17  1  0  0  0
  7  8  2  0  0  0
  8  9  1  0  0  0
  8 11  1  0  0  0
  9 10  2  0  0  0
  9 23  1  0  0  0
 10 24  1  0  0  0
 11 16  1  0  0  0
 11 12  2  0  0  0
 12 13  1  0  0  0
 12 25  1  0  0  0
 13 14  2  0  0  0
 13 26  1  0  0  0
 14 15  1  0  0  0
 14 27  1  0  0  0
 15 16  2  0  0  0
 15 28  1  0  0  0
 16 17  1  0  0  0
 17 29  1  0  0  0
 17 30  1  0  0  0
M  END
>  <i_m_Spin_multiplicity> (1)
1

>  <s_j_Task> (1)
Single Point

>  <s_j_QM_Method> (1)
DFT(b3lyp-d3)

>  <s_j_QM_Basis> (1)
cc-pvtz(-f)

>  <i_j_Number_of_canonical_orbitals> (1)
496

>  <i_j_Geometry_convergence_category> (1)
1

>  <r_j_Gas_Phase_Energy> (1)
-709.683759399842

>  <r_j_Final_Energy> (1)
-709.683759399842

>  <r_j_HOMO> (1)
-0.194992537825999

>  <r_j_LUMO> (1)
-0.0291551012536701

>  <r_j_Polarizability> (1)
195.91262671392

>  <r_j_QM_Dipole_(debye)> (1)
3.85948971350039

>  <r_j_QM_Dipole_X_(debye)> (1)
-1.80483249104847

>  <r_j_QM_Dipole_Y_(debye)> (1)
3.20985345235973

>  <r_j_QM_Dipole_Z_(debye)> (1)
-1.15545720052514

>  <r_j_Lowest_Frequency_(cm-1)> (1)
54.9296550302219

>  <r_j_Highest_Frequency_(cm-1)> (1)
3582.32673250035

>  <r_j_2nd_Lowest_Frequency_(cm-1)> (1)
84.836283974936

>  <i_j_Num_Negative_Frequencies> (1)
0

>  <r_j_Zero_Point_Energy_(kcal/mol)> (1)
151.540378983196

>  <r_j_Entropy_(cal/mol/K)_298.15K_1.00E+00atm> (1)
112.220920987286

>  <r_j_Enthalpy_(kcal/mol)_298.15K_1.00E+00atm> (1)
8.87912418061188

>  <r_j_Free_Energy_(kcal/mol)_298.15K_1.00E+00atm> (1)
-24.5795434117474

>  <r_j_Internal_Energy_(kcal/mol)_298.15K_1.00E+00atm> (1)
8.28663859178461

>  <r_j_Heat_Capacity_(cal/mol/K)_298.15K_1.00E+00atm> (1)
54.3223886902533

>  <r_j_ln(Q)_298.15K_1.00E+00atm> (1)
41.485470491187

>  <r_j_Total_Internal_Energy_(au)_298.15K_1.00E+00atm> (1)
-709.429058833212

>  <r_j_Total_Enthalpy_(au)_298.15K_1.00E+00atm> (1)
-709.428114647319

>  <r_j_Total_Free_Energy_(au)_298.15K_1.00E+00atm> (1)
-709.481434428442

>  <r_lp_tautomer_probability> (1)
1

>  <r_epik_Ionization_Penalty> (1)
  0.0000

>  <r_epik_Ionization_Penalty_Charging> (1)
  0.0000

>  <r_epik_Ionization_Penalty_Neutral> (1)
  0.0000

>  <r_epik_State_Penalty> (1)
  0.0000

>  <r_epik_Charging_Adjusted_Penalty> (1)
0

>  <i_epik_Tot_Q> (1)
0

>  <i_epik_Tot_abs_Q> (1)
0

>  <s_lp_Force_Field> (1)
S-OPLS

>  <r_lp_Energy> (1)
12.750478

>  <b_lp_Chiralities_Consistent> (1)
1

$$$$
