5954_Benz(a)anthracene
                    3D
 Schrodinger Suite 2021-3.
 30 33  0  0  1  0            999 V2000
    0.0264    1.0125    0.0063 C   0  0  0  0  0  0
   -1.2064    1.6839    0.0202 C   0  0  0  0  0  0
   -1.2483    3.0681    0.0274 C   0  0  0  0  0  0
   -0.0683    3.8414    0.0210 C   0  0  0  0  0  0
    1.1782    3.1544    0.0066 C   0  0  0  0  0  0
    1.1995    1.7440   -0.0004 C   0  0  0  0  0  0
    2.4092    3.9024   -0.0007 C   0  0  0  0  0  0
    2.4118    5.2571    0.0059 C   0  0  0  0  0  0
    1.1835    6.0079    0.0205 C   0  0  0  0  0  0
    1.2031    7.4011    0.0273 C   0  0  0  0  0  0
    0.0226    8.1608    0.0417 C   0  0  0  0  0  0
    0.0252    9.5863    0.0491 C   0  0  0  0  0  0
   -1.1519   10.2902    0.0633 C   0  0  0  0  0  0
   -2.3986    9.6064    0.0709 C   0  0  0  0  0  0
   -2.4381    8.2350    0.0641 C   0  0  0  0  0  0
   -1.2358    7.4687    0.0495 C   0  0  0  0  0  0
   -1.2459    6.0615    0.0425 C   0  0  0  0  0  0
   -0.0758    5.3058    0.0283 C   0  0  0  0  0  0
    0.0571   -0.0729    0.0007 H   0  0  0  0  0  0
   -2.1330    1.1175    0.0255 H   0  0  0  0  0  0
   -2.2156    3.5573    0.0382 H   0  0  0  0  0  0
    2.1616    1.2380   -0.0112 H   0  0  0  0  0  0
    3.3451    3.3500   -0.0117 H   0  0  0  0  0  0
    3.3489    5.8075    0.0002 H   0  0  0  0  0  0
    2.1616    7.9154    0.0212 H   0  0  0  0  0  0
    0.9799   10.1060    0.0432 H   0  0  0  0  0  0
   -1.1375   11.3762    0.0689 H   0  0  0  0  0  0
   -3.3220   10.1780    0.0820 H   0  0  0  0  0  0
   -3.3905    7.7108    0.0698 H   0  0  0  0  0  0
   -2.2134    5.5709    0.0487 H   0  0  0  0  0  0
  1  6  1  0  0  0
  1  2  2  0  0  0
  1 19  1  0  0  0
  2  3  1  0  0  0
  2 20  1  0  0  0
  3  4  2  0  0  0
  3 21  1  0  0  0
  4 18  1  0  0  0
  4  5  1  0  0  0
  5  6  2  0  0  0
  5  7  1  0  0  0
  6 22  1  0  0  0
  7  8  2  0  0  0
  7 23  1  0  0  0
  8  9  1  0  0  0
  8 24  1  0  0  0
  9 18  1  0  0  0
  9 10  2  0  0  0
 10 11  1  0  0  0
 10 25  1  0  0  0
 11 16  1  0  0  0
 11 12  2  0  0  0
 12 13  1  0  0  0
 12 26  1  0  0  0
 13 14  2  0  0  0
 13 27  1  0  0  0
 14 15  1  0  0  0
 14 28  1  0  0  0
 15 16  2  0  0  0
 15 29  1  0  0  0
 16 17  1  0  0  0
 17 18  2  0  0  0
 17 30  1  0  0  0
M  END
>  <i_m_Spin_multiplicity> (1)
1

>  <s_j_Task> (1)
Single Point

>  <s_j_QM_Method> (1)
DFT(b3lyp-d3)

>  <s_j_QM_Basis> (1)
cc-pvtz(-f)

>  <i_j_Number_of_canonical_orbitals> (1)
505

>  <i_j_Geometry_convergence_category> (1)
0

>  <r_j_Gas_Phase_Energy> (1)
-693.404121955681

>  <r_j_Final_Energy> (1)
-693.404121955681

>  <r_j_HOMO> (1)
-0.170838434725253

>  <r_j_LUMO> (1)
-0.0352156407358145

>  <r_j_Polarizability> (1)
227.757474781239

>  <r_j_QM_Dipole_(debye)> (1)
0.0476974992526311

>  <r_j_QM_Dipole_X_(debye)> (1)
-0.0381543416648266

>  <r_j_QM_Dipole_Y_(debye)> (1)
-0.0286227555803677

>  <r_j_QM_Dipole_Z_(debye)> (1)
0.000188441144535492

>  <r_j_Lowest_Frequency_(cm-1)> (1)
86.0102625717498

>  <r_j_Highest_Frequency_(cm-1)> (1)
3160.22115581074

>  <r_j_2nd_Lowest_Frequency_(cm-1)> (1)
95.4273190576083

>  <i_j_Num_Negative_Frequencies> (1)
0

>  <r_j_Zero_Point_Energy_(kcal/mol)> (1)
150.639696813233

>  <r_j_Entropy_(cal/mol/K)_298.15K_1.00E+00atm> (1)
105.836063955396

>  <r_j_Enthalpy_(kcal/mol)_298.15K_1.00E+00atm> (1)
7.98579812124226

>  <r_j_Free_Energy_(kcal/mol)_298.15K_1.00E+00atm> (1)
-23.5692243470592

>  <r_j_Internal_Energy_(kcal/mol)_298.15K_1.00E+00atm> (1)
7.39331253241498

>  <r_j_Heat_Capacity_(cal/mol/K)_298.15K_1.00E+00atm> (1)
51.6378726595441

>  <r_j_ln(Q)_298.15K_1.00E+00atm> (1)
39.7802491596639

>  <r_j_Total_Internal_Energy_(au)_298.15K_1.00E+00atm> (1)
-693.152280323163

>  <r_j_Total_Enthalpy_(au)_298.15K_1.00E+00atm> (1)
-693.15133613727

>  <r_j_Total_Free_Energy_(au)_298.15K_1.00E+00atm> (1)
-693.201622266766

>  <r_lp_tautomer_probability> (1)
1

>  <r_epik_Ionization_Penalty> (1)
  0.0000

>  <r_epik_Ionization_Penalty_Charging> (1)
  0.0000

>  <r_epik_Ionization_Penalty_Neutral> (1)
  0.0000

>  <r_epik_State_Penalty> (1)
  0.0000

>  <r_epik_Charging_Adjusted_Penalty> (1)
0

>  <i_epik_Tot_Q> (1)
0

>  <i_epik_Tot_abs_Q> (1)
0

>  <s_lp_Force_Field> (1)
S-OPLS

>  <r_lp_Energy> (1)
39.5893

>  <b_lp_Chiralities_Consistent> (1)
1

$$$$
