604_Gluconic Acid
                    3D
 Schrodinger Suite 2021-3.
 24 23  0  0  1  0            999 V2000
   -2.1388   -0.7140    1.3038 C   0  0  0  0  0  0
   -0.6054   -0.7282    1.2595 C   0  0  0  0  0  0
   -0.0593   -0.0888   -0.0313 C   0  0  0  0  0  0
    1.4682    0.0746   -0.0174 C   0  0  0  0  0  0
    2.0167    0.5766   -1.3663 C   0  0  0  0  0  0
    3.5530    0.8106   -1.2515 C   0  0  0  0  0  0
    4.2304   -0.1467   -0.7820 O   0  0  0  0  0  0
    3.9301    1.9502   -1.6191 O   0  5  0  0  0  0
    1.4072    1.7993   -1.7717 O   0  0  0  0  0  0
    2.0802   -1.1725    0.2837 O   0  0  0  0  0  0
   -0.6748    1.1925   -0.1931 O   0  0  0  0  0  0
   -0.2064   -2.0871    1.3564 O   0  0  0  0  0  0
   -2.6849    0.5765    1.5205 O   0  0  0  0  0  0
   -2.5170   -1.1762    0.3740 H   0  0  0  0  0  0
   -2.4558   -1.3557    2.1343 H   0  0  0  0  0  0
   -0.2432   -0.1307    2.1157 H   0  0  0  0  0  0
   -0.3304   -0.7611   -0.8645 H   0  0  0  0  0  0
    1.7031    0.8315    0.7533 H   0  0  0  0  0  0
    1.8272   -0.2100   -2.1133 H   0  0  0  0  0  0
    2.2200    2.3699   -1.8353 H   0  0  0  0  0  0
    3.0288   -1.0439   -0.0165 H   0  0  0  0  0  0
   -0.1004    1.7019   -0.8030 H   0  0  0  0  0  0
    0.7360   -2.0972    1.1002 H   0  0  0  0  0  0
   -2.2113    1.1485    0.8910 H   0  0  0  0  0  0
  1  2  1  0  0  0
  1 13  1  0  0  0
  1 14  1  0  0  0
  1 15  1  0  0  0
  2  3  1  0  0  0
  2 12  1  0  0  0
  2 16  1  0  0  0
  3  4  1  0  0  0
  3 11  1  0  0  0
  3 17  1  0  0  0
  4  5  1  0  0  0
  4 10  1  0  0  0
  4 18  1  0  0  0
  5  6  1  0  0  0
  5  9  1  0  0  0
  5 19  1  0  0  0
  6  7  2  0  0  0
  6  8  1  0  0  0
  9 20  1  0  0  0
 10 21  1  0  0  0
 11 22  1  0  0  0
 12 23  1  0  0  0
 13 24  1  0  0  0
M  END
>  <i_m_Spin_multiplicity> (1)
1

>  <s_j_Task> (1)
Single Point

>  <s_j_QM_Method> (1)
DFT(b3lyp-d3)

>  <s_j_QM_Basis> (1)
cc-pvtz(-f)

>  <i_j_Number_of_canonical_orbitals> (1)
396

>  <i_j_Geometry_convergence_category> (1)
3

>  <r_j_Gas_Phase_Energy> (1)
-762.222832389733

>  <r_j_Final_Energy> (1)
-762.222832389733

>  <r_j_HOMO> (1)
-0.101683352581129

>  <r_j_LUMO> (1)
0.154975041300443

>  <r_j_Polarizability> (1)
100.538585463693

>  <r_j_QM_Dipole_(debye)> (1)
4.10854030444114

>  <r_j_QM_Dipole_X_(debye)> (1)
-4.01995211358361

>  <r_j_QM_Dipole_Y_(debye)> (1)
-0.770301304934918

>  <r_j_QM_Dipole_Z_(debye)> (1)
0.355983619465101

>  <r_j_Lowest_Frequency_(cm-1)> (1)
55.4065403968414

>  <r_j_Highest_Frequency_(cm-1)> (1)
3626.64639488661

>  <r_j_2nd_Lowest_Frequency_(cm-1)> (1)
69.6215440992844

>  <i_j_Num_Negative_Frequencies> (1)
0

>  <r_j_Zero_Point_Energy_(kcal/mol)> (1)
118.227679874681

>  <r_j_Entropy_(cal/mol/K)_298.15K_1.00E+00atm> (1)
107.958484432347

>  <r_j_Enthalpy_(kcal/mol)_298.15K_1.00E+00atm> (1)
8.26912400732419

>  <r_j_Free_Energy_(kcal/mol)_298.15K_1.00E+00atm> (1)
-23.9186981261801

>  <r_j_Internal_Energy_(kcal/mol)_298.15K_1.00E+00atm> (1)
7.67663841849692

>  <r_j_Heat_Capacity_(cal/mol/K)_298.15K_1.00E+00atm> (1)
47.179432084407

>  <r_j_ln(Q)_298.15K_1.00E+00atm> (1)
40.370092669297

>  <r_j_Total_Internal_Energy_(au)_298.15K_1.00E+00atm> (1)
-762.022191085796

>  <r_j_Total_Enthalpy_(au)_298.15K_1.00E+00atm> (1)
-762.021246899904

>  <r_j_Total_Free_Energy_(au)_298.15K_1.00E+00atm> (1)
-762.072541459863

>  <r_lp_tautomer_probability> (1)
1

>  <r_epik_Ionization_Penalty> (1)
  0.0002

>  <r_epik_Ionization_Penalty_Charging> (1)
  0.0002

>  <r_epik_Ionization_Penalty_Neutral> (1)
  0.0000

>  <r_epik_State_Penalty> (1)
  0.0000

>  <r_epik_Charging_Adjusted_Penalty> (1)
0.000210891

>  <i_epik_Tot_Q> (1)
-1

>  <i_epik_Tot_abs_Q> (1)
1

>  <s_lp_Force_Field> (1)
S-OPLS

>  <r_lp_Energy> (1)
18.4155

>  <b_lp_Chiralities_Consistent> (1)
1

$$$$
