6053_4-(Dimethylamino)azobenzene
                    3D
 Schrodinger Suite 2021-3.
 32 33  0  0  1  0            999 V2000
   -0.8103   -0.4794    1.0308 C   0  0  0  0  0  0
   -0.0275   -0.0388   -0.1116 N   0  0  0  0  0  0
   -0.6884    0.6645   -1.1979 C   0  0  0  0  0  0
    1.3500   -0.0970   -0.0689 C   0  0  0  0  0  0
    2.1418    0.4298   -1.1182 C   0  0  0  0  0  0
    3.5242    0.3579   -1.0645 C   0  0  0  0  0  0
    4.1841   -0.2311    0.0229 C   0  0  0  0  0  0
    3.4067   -0.7564    1.0718 C   0  0  0  0  0  0
    2.0272   -0.6912    1.0306 C   0  0  0  0  0  0
    5.5861   -0.2350   -0.0354 N   0  0  0  0  0  0
    6.1697   -0.7694    0.9517 N   0  0  0  0  0  0
    7.5845   -0.7531    0.8715 C   0  0  0  0  0  0
    8.2569   -1.3499    1.9456 C   0  0  0  0  0  0
    9.6495   -1.3864    1.9702 C   0  0  0  0  0  0
   10.3802   -0.8259    0.9220 C   0  0  0  0  0  0
    9.7107   -0.2283   -0.1526 C   0  0  0  0  0  0
    8.3225   -0.1887   -0.1844 C   0  0  0  0  0  0
   -0.6375   -1.5405    1.2490 H   0  0  0  0  0  0
   -1.8711   -0.3553    0.8105 H   0  0  0  0  0  0
   -0.5809    0.0959    1.9393 H   0  0  0  0  0  0
   -0.4406    0.2202   -2.1700 H   0  0  0  0  0  0
   -0.4146    1.7291   -1.2325 H   0  0  0  0  0  0
   -1.7689    0.5961   -1.0685 H   0  0  0  0  0  0
    1.6774    0.8983   -1.9765 H   0  0  0  0  0  0
    4.1280    0.7642   -1.8704 H   0  0  0  0  0  0
    3.9128   -1.2111    1.9161 H   0  0  0  0  0  0
    1.4643   -1.1032    1.8590 H   0  0  0  0  0  0
    7.6642   -1.7775    2.7482 H   0  0  0  0  0  0
   10.1643   -1.8508    2.8063 H   0  0  0  0  0  0
   11.4661   -0.8516    0.9391 H   0  0  0  0  0  0
   10.2804    0.2089   -0.9682 H   0  0  0  0  0  0
    7.7875    0.2703   -1.0077 H   0  0  0  0  0  0
  1  2  1  0  0  0
  1 18  1  0  0  0
  1 19  1  0  0  0
  1 20  1  0  0  0
  2  3  1  0  0  0
  2  4  1  0  0  0
  3 21  1  0  0  0
  3 22  1  0  0  0
  3 23  1  0  0  0
  4  9  1  0  0  0
  4  5  2  0  0  0
  5  6  1  0  0  0
  5 24  1  0  0  0
  6  7  2  0  0  0
  6 25  1  0  0  0
  7  8  1  0  0  0
  7 10  1  0  0  0
  8  9  2  0  0  0
  8 26  1  0  0  0
  9 27  1  0  0  0
 10 11  2  0  0  0
 11 12  1  0  0  0
 12 17  1  0  0  0
 12 13  2  0  0  0
 13 14  1  0  0  0
 13 28  1  0  0  0
 14 15  2  0  0  0
 14 29  1  0  0  0
 15 16  1  0  0  0
 15 30  1  0  0  0
 16 17  2  0  0  0
 16 31  1  0  0  0
 17 32  1  0  0  0
M  END
>  <i_m_Spin_multiplicity> (1)
1

>  <s_j_Task> (1)
Single Point

>  <s_j_QM_Method> (1)
DFT(b3lyp-d3)

>  <s_j_QM_Basis> (1)
cc-pvtz(-f)

>  <i_j_Number_of_canonical_orbitals> (1)
516

>  <i_j_Geometry_convergence_category> (1)
3

>  <r_j_Gas_Phase_Energy> (1)
-706.974260690385

>  <r_j_Final_Energy> (1)
-706.974260690385

>  <r_j_HOMO> (1)
-0.199644373067539

>  <r_j_LUMO> (1)
-0.0798876584274961

>  <r_j_Polarizability> (1)
242.211227997761

>  <r_j_QM_Dipole_(debye)> (1)
4.28039210542805

>  <r_j_QM_Dipole_X_(debye)> (1)
-4.24830612463879

>  <r_j_QM_Dipole_Y_(debye)> (1)
0.448409672028148

>  <r_j_QM_Dipole_Z_(debye)> (1)
-0.269407523278213

>  <r_j_Lowest_Frequency_(cm-1)> (1)
50.2192641734165

>  <r_j_Highest_Frequency_(cm-1)> (1)
3173.05418860351

>  <r_j_2nd_Lowest_Frequency_(cm-1)> (1)
70.0517210178265

>  <i_j_Num_Negative_Frequencies> (1)
0

>  <r_j_Zero_Point_Energy_(kcal/mol)> (1)
164.900522036897

>  <r_j_Entropy_(cal/mol/K)_298.15K_1.00E+00atm> (1)
118.341729696302

>  <r_j_Enthalpy_(kcal/mol)_298.15K_1.00E+00atm> (1)
9.63972783581231

>  <r_j_Free_Energy_(kcal/mol)_298.15K_1.00E+00atm> (1)
-25.6438588731401

>  <r_j_Internal_Energy_(kcal/mol)_298.15K_1.00E+00atm> (1)
9.04724224698504

>  <r_j_Heat_Capacity_(cal/mol/K)_298.15K_1.00E+00atm> (1)
57.5685222903696

>  <r_j_ln(Q)_298.15K_1.00E+00atm> (1)
43.281827198359

>  <r_j_Total_Internal_Energy_(au)_298.15K_1.00E+00atm> (1)
-706.697057281353

>  <r_j_Total_Enthalpy_(au)_298.15K_1.00E+00atm> (1)
-706.69611309546

>  <r_j_Total_Free_Energy_(au)_298.15K_1.00E+00atm> (1)
-706.752341070329

>  <r_lp_tautomer_probability> (1)
1

>  <r_epik_Ionization_Penalty> (1)
  0.0002

>  <r_epik_Ionization_Penalty_Charging> (1)
  0.0000

>  <r_epik_Ionization_Penalty_Neutral> (1)
  0.0002

>  <r_epik_State_Penalty> (1)
  0.0000

>  <r_epik_Charging_Adjusted_Penalty> (1)
0

>  <i_epik_Tot_Q> (1)
0

>  <i_epik_Tot_abs_Q> (1)
0

>  <s_lp_Force_Field> (1)
S-OPLS

>  <r_lp_Energy> (1)
43.0042

>  <b_lp_Chiralities_Consistent> (1)
1

$$$$
