6061_Methylhydrazine
                    3D
 Schrodinger Suite 2021-3.
 10  9  0  0  1  0            999 V2000
   -0.0405    0.0041    0.0391 C   0  0  0  0  0  0
    1.4305   -0.0043    0.0859 N   0  0  1  0  0  0
    1.9352   -1.3700    0.0212 N   0  3  0  0  0  0
   -0.3402    1.0536    0.0222 H   0  0  0  0  0  0
   -0.4379   -0.4417    0.9550 H   0  0  0  0  0  0
   -0.4621   -0.5015   -0.8413 H   0  0  0  0  0  0
    1.8255    0.4766   -0.7231 H   0  0  0  0  0  0
    2.9625   -1.3497    0.0257 H   0  0  0  0  0  0
    1.6127   -1.9324   -0.7865 H   0  0  0  0  0  0
    1.6419   -1.8531    0.8802 H   0  0  0  0  0  0
  1  2  1  0  0  0
  1  4  1  0  0  0
  1  5  1  0  0  0
  1  6  1  0  0  0
  2  3  1  0  0  0
  2  7  1  0  0  0
  3  8  1  0  0  0
  3  9  1  0  0  0
  3 10  1  0  0  0
M  CHG  1   3   1
M  END
> <i_m_Spin_multiplicity>
1

> <s_j_Task>
Single Point

> <s_j_QM_Method>
DFT(b3lyp-d3)

> <s_j_QM_Basis>
cc-pvtz(-f)

> <i_j_Number_of_canonical_orbitals>
132

> <i_j_Geometry_convergence_category>
0

> <r_j_Gas_Phase_Energy>
-151.588842111822

> <r_j_Final_Energy>
-151.588842111822

> <r_j_HOMO>
-0.484757905530793

> <r_j_LUMO>
-0.212533332402522

> <r_j_Polarizability>
28.7081712104012

> <r_j_QM_Dipole_(debye)>
3.99027048488164

> <r_j_QM_Dipole_X_(debye)>
2.10123853745893

> <r_j_QM_Dipole_Y_(debye)>
-3.19597024113682

> <r_j_QM_Dipole_Z_(debye)>
-1.13702654717595

> <r_j_Lowest_Frequency_(cm-1)>
295.084516075489

> <r_j_Highest_Frequency_(cm-1)>
3449.06444429094

> <r_j_2nd_Lowest_Frequency_(cm-1)>
316.946114216283

> <i_j_Num_Negative_Frequencies>
0

> <r_j_Zero_Point_Energy_(kcal/mol)>
60.0892843962043

> <r_j_Entropy_(cal/mol/K)_298.15K_1.00E+00atm>
64.217812825973

> <r_j_Enthalpy_(kcal/mol)_298.15K_1.00E+00atm>
3.23892516858919

> <r_j_Free_Energy_(kcal/mol)_298.15K_1.00E+00atm>
-15.9076157254747

> <r_j_Internal_Energy_(kcal/mol)_298.15K_1.00E+00atm>
2.64643957976191

> <r_j_Heat_Capacity_(cal/mol/K)_298.15K_1.00E+00atm>
13.5331713005799

> <r_j_ln(Q)_298.15K_1.00E+00atm>
26.8489496208019

> <r_j_Total_Internal_Energy_(au)_298.15K_1.00E+00atm>
-151.488866371256

> <r_j_Total_Enthalpy_(au)_298.15K_1.00E+00atm>
-151.487922185363

> <r_j_Total_Free_Energy_(au)_298.15K_1.00E+00atm>
-151.518434140656

> <r_epik_Ionization_Penalty>
  0.1729

> <r_epik_Ionization_Penalty_Charging>
  0.1729

> <r_epik_Ionization_Penalty_Neutral>
  0.0000

> <r_epik_State_Penalty>
  0.8391

> <r_epik_Charging_Adjusted_Penalty>
1.012

> <i_epik_Tot_Q>
1

> <i_epik_Tot_abs_Q>
1

> <s_lp_Force_Field>
S-OPLS

> <r_lp_Energy>
3.74651

> <b_lp_Chiralities_Consistent>
1

$$$$
