606469_Pinostrobin chalcone
                    3D
 Schrodinger Suite 2021-3.
 34 35  0  0  1  0            999 V2000
   -5.1155   -0.7647    0.2202 C   0  0  0  0  0  0
   -4.1705    0.2431    0.5513 O   0  0  0  0  0  0
   -2.8587    0.0248    0.2618 C   0  0  0  0  0  0
   -1.9865    1.0544    0.6261 C   0  0  0  0  0  0
   -0.6229    0.9347    0.3672 C   0  0  0  0  0  0
   -0.0848   -0.2234   -0.2417 C   0  0  0  0  0  0
   -0.9925   -1.2357   -0.5904 C   0  0  0  0  0  0
   -2.3685   -1.1294   -0.3531 C   0  0  0  0  0  0
   -0.4867   -2.3457   -1.2099 O   0  0  0  0  0  0
    1.3875   -0.3269   -0.5272 C   0  0  0  0  0  0
    2.0067    0.6187   -1.0017 O   0  0  0  0  0  0
    2.0588   -1.5982   -0.1556 C   0  0  0  0  0  0
    3.3826   -1.7531   -0.3407 C   0  0  0  0  0  0
    4.1969   -2.9223   -0.0094 C   0  0  0  0  0  0
    3.6653   -4.1008    0.5491 C   0  0  0  0  0  0
    4.4864   -5.1830    0.8425 C   0  0  0  0  0  0
    5.8594   -5.1182    0.5865 C   0  0  0  0  0  0
    6.4033   -3.9593    0.0332 C   0  0  0  0  0  0
    5.5800   -2.8751   -0.2611 C   0  0  0  0  0  0
    0.2448    1.9113    0.7384 O   0  0  0  0  0  0
   -6.0855   -0.3850    0.5444 H   0  0  0  0  0  0
   -4.9033   -1.7059    0.7439 H   0  0  0  0  0  0
   -5.1451   -0.9521   -0.8610 H   0  0  0  0  0  0
   -2.3925    1.9367    1.1109 H   0  0  0  0  0  0
   -3.0264   -1.9343   -0.6599 H   0  0  0  0  0  0
   -1.2085   -2.9559   -1.4072 H   0  0  0  0  0  0
    1.4446   -2.3801    0.2749 H   0  0  0  0  0  0
    3.9075   -0.9100   -0.7871 H   0  0  0  0  0  0
    2.6015   -4.1691    0.7520 H   0  0  0  0  0  0
    4.0568   -6.0834    1.2724 H   0  0  0  0  0  0
    6.4978   -5.9661    0.8170 H   0  0  0  0  0  0
    7.4686   -3.8995   -0.1697 H   0  0  0  0  0  0
    6.0066   -1.9733   -0.6923 H   0  0  0  0  0  0
   -0.2496    2.6223    1.1662 H   0  0  0  0  0  0
  1  2  1  0  0  0
  1 21  1  0  0  0
  1 22  1  0  0  0
  1 23  1  0  0  0
  2  3  1  0  0  0
  3  8  1  0  0  0
  3  4  2  0  0  0
  4  5  1  0  0  0
  4 24  1  0  0  0
  5  6  2  0  0  0
  5 20  1  0  0  0
  6  7  1  0  0  0
  6 10  1  0  0  0
  7  8  2  0  0  0
  7  9  1  0  0  0
  8 25  1  0  0  0
  9 26  1  0  0  0
 10 11  2  0  0  0
 10 12  1  0  0  0
 12 13  2  0  0  0
 12 27  1  0  0  0
 13 14  1  0  0  0
 13 28  1  0  0  0
 14 19  1  0  0  0
 14 15  2  0  0  0
 15 16  1  0  0  0
 15 29  1  0  0  0
 16 17  2  0  0  0
 16 30  1  0  0  0
 17 18  1  0  0  0
 17 31  1  0  0  0
 18 19  2  0  0  0
 18 32  1  0  0  0
 19 33  1  0  0  0
 20 34  1  0  0  0
M  END
>  <i_m_Spin_multiplicity> (1)
1

>  <s_j_Task> (1)
Single Point

>  <s_j_QM_Method> (1)
DFT(b3lyp-d3)

>  <s_j_QM_Basis> (1)
cc-pvtz(-f)

>  <i_j_Number_of_canonical_orbitals> (1)
573

>  <i_j_Geometry_convergence_category> (1)
0

>  <r_j_Gas_Phase_Energy> (1)
-919.32502361816

>  <r_j_Final_Energy> (1)
-919.32502361816

>  <r_j_HOMO> (1)
-0.23098524144819

>  <r_j_LUMO> (1)
-0.0846710199098523

>  <r_j_Polarizability> (1)
223.627433286126

>  <r_j_QM_Dipole_(debye)> (1)
5.37259421639906

>  <r_j_QM_Dipole_X_(debye)> (1)
-4.08912207663985

>  <r_j_QM_Dipole_Y_(debye)> (1)
-3.23647877706504

>  <r_j_QM_Dipole_Z_(debye)> (1)
1.29191887594725

>  <r_j_Lowest_Frequency_(cm-1)> (1)
43.7972188631727

>  <r_j_Highest_Frequency_(cm-1)> (1)
3777.81368087653

>  <r_j_2nd_Lowest_Frequency_(cm-1)> (1)
48.2099435452499

>  <i_j_Num_Negative_Frequencies> (1)
0

>  <r_j_Zero_Point_Energy_(kcal/mol)> (1)
166.262260769789

>  <r_j_Entropy_(cal/mol/K)_298.15K_1.00E+00atm> (1)
130.032041869173

>  <r_j_Enthalpy_(kcal/mol)_298.15K_1.00E+00atm> (1)
11.3484156367475

>  <r_j_Free_Energy_(kcal/mol)_298.15K_1.00E+00atm> (1)
-27.4206376465465

>  <r_j_Internal_Energy_(kcal/mol)_298.15K_1.00E+00atm> (1)
10.7559300479203

>  <r_j_Heat_Capacity_(cal/mol/K)_298.15K_1.00E+00atm> (1)
68.3375266305298

>  <r_j_ln(Q)_298.15K_1.00E+00atm> (1)
46.2806828784158

>  <r_j_Total_Internal_Energy_(au)_298.15K_1.00E+00atm> (1)
-919.042927172958

>  <r_j_Total_Enthalpy_(au)_298.15K_1.00E+00atm> (1)
-919.041982987066

>  <r_j_Total_Free_Energy_(au)_298.15K_1.00E+00atm> (1)
-919.103765406514

>  <r_epik_Ionization_Penalty> (1)
  0.2960

>  <r_epik_Ionization_Penalty_Charging> (1)
  0.0000

>  <r_epik_Ionization_Penalty_Neutral> (1)
  0.2960

>  <r_epik_State_Penalty> (1)
  0.2895

>  <r_epik_Charging_Adjusted_Penalty> (1)
0.289519493416727

>  <i_epik_Tot_Q> (1)
0

>  <i_epik_Tot_abs_Q> (1)
0

>  <s_lp_Force_Field> (1)
S-OPLS

>  <r_lp_Energy> (1)
34.081704

>  <b_lp_Chiralities_Consistent> (1)
1

$$$$
