6115_Aniline
                    3D
 Schrodinger Suite 2021-3.
 14 14  0  0  1  0            999 V2000
   -2.7827    0.0000    0.0000 C   0  0  0  0  0  0
   -2.0711    1.2013    0.0000 C   0  0  0  0  0  0
   -0.6795    1.2092    0.0000 C   0  0  0  0  0  0
    0.0412    0.0000    0.0000 C   0  0  0  0  0  0
   -0.6795   -1.2092    0.0000 C   0  0  0  0  0  0
   -2.0712   -1.2012    0.0000 C   0  0  0  0  0  0
    1.4201    0.0000    0.0000 N   0  0  0  0  0  0
   -3.8679    0.0000    0.0000 H   0  0  0  0  0  0
   -2.6046    2.1482    0.0000 H   0  0  0  0  0  0
   -0.1390    2.1530    0.0000 H   0  0  0  0  0  0
   -0.1391   -2.1530    0.0000 H   0  0  0  0  0  0
   -2.6046   -2.1482    0.0000 H   0  0  0  0  0  0
    1.9374   -0.8608   -0.0001 H   0  0  0  0  0  0
    1.9374    0.8608   -0.0001 H   0  0  0  0  0  0
  1  6  1  0  0  0
  1  2  2  0  0  0
  1  8  1  0  0  0
  2  3  1  0  0  0
  2  9  1  0  0  0
  3  4  2  0  0  0
  3 10  1  0  0  0
  4  5  1  0  0  0
  4  7  1  0  0  0
  5  6  2  0  0  0
  5 11  1  0  0  0
  6 12  1  0  0  0
  7 13  1  0  0  0
  7 14  1  0  0  0
M  END
>  <i_m_Spin_multiplicity> (1)
1

>  <s_j_Task> (1)
Single Point

>  <s_j_QM_Method> (1)
DFT(b3lyp-d3)

>  <s_j_QM_Basis> (1)
cc-pvtz(-f)

>  <i_j_Number_of_canonical_orbitals> (1)
219

>  <i_j_Geometry_convergence_category> (1)
0

>  <r_j_Gas_Phase_Energy> (1)
-287.706703340826

>  <r_j_Final_Energy> (1)
-287.706703340826

>  <r_j_HOMO> (1)
-0.199663883377427

>  <r_j_LUMO> (1)
-0.00379224215328584

>  <r_j_Polarizability> (1)
73.6543931926413

>  <r_j_QM_Dipole_(debye)> (1)
2.00042988666544

>  <r_j_QM_Dipole_X_(debye)> (1)
2.00042986197752

>  <r_j_QM_Dipole_Y_(debye)> (1)
0.000105070061597886

>  <r_j_QM_Dipole_Z_(debye)> (1)
-0.000296197880206438

>  <r_j_Lowest_Frequency_(cm-1)> (1)
-424.834731155639

>  <r_j_Highest_Frequency_(cm-1)> (1)
3710.49143073072

>  <r_j_2nd_Lowest_Frequency_(cm-1)> (1)
230.601220077032

>  <i_j_Num_Negative_Frequencies> (1)
1

>  <r_j_Zero_Point_Energy_(kcal/mol)> (1)
72.4668004689719

>  <r_j_Entropy_(cal/mol/K)_298.15K_1.00E+00atm> (1)
72.9331761436967

>  <r_j_Enthalpy_(kcal/mol)_298.15K_1.00E+00atm> (1)
4.00765020127385

>  <r_j_Free_Energy_(kcal/mol)_298.15K_1.00E+00atm> (1)
-17.7373762659693

>  <r_j_Internal_Energy_(kcal/mol)_298.15K_1.00E+00atm> (1)
3.41516461244657

>  <r_j_Heat_Capacity_(cal/mol/K)_298.15K_1.00E+00atm> (1)
21.739281874714

>  <r_j_ln(Q)_298.15K_1.00E+00atm> (1)
29.9372281798069

>  <r_j_Total_Internal_Energy_(au)_298.15K_1.00E+00atm> (1)
-287.585777731399

>  <r_j_Total_Enthalpy_(au)_298.15K_1.00E+00atm> (1)
-287.584833545507

>  <r_j_Total_Free_Energy_(au)_298.15K_1.00E+00atm> (1)
-287.619486451171

>  <r_epik_Ionization_Penalty> (1)
  0.0022

>  <r_epik_Ionization_Penalty_Charging> (1)
  0.0000

>  <r_epik_Ionization_Penalty_Neutral> (1)
  0.0022

>  <r_epik_State_Penalty> (1)
  0.0015

>  <r_epik_Charging_Adjusted_Penalty> (1)
0.00152120215771262

>  <i_epik_Tot_Q> (1)
0

>  <i_epik_Tot_abs_Q> (1)
0

>  <s_lp_Force_Field> (1)
S-OPLS

>  <r_lp_Energy> (1)
7.032592

>  <b_lp_Chiralities_Consistent> (1)
1

$$$$
