6124_N-Nitrosodimethylamine
                    3D
 Schrodinger Suite 2021-3.
 11 10  0  0  1  0            999 V2000
   -0.1750   -0.0985    0.0454 C   0  0  0  0  0  0
    1.2544   -0.2676    0.1972 N   0  0  0  0  0  0
    1.9832    0.4865    1.2034 C   0  0  0  0  0  0
    1.8378   -1.1491   -0.6354 N   0  0  0  0  0  0
    3.0479   -1.2911   -0.5039 O   0  0  0  0  0  0
   -0.4196    0.9398   -0.2094 H   0  0  0  0  0  0
   -0.6992   -0.3626    0.9718 H   0  0  0  0  0  0
   -0.5052   -0.7574   -0.7594 H   0  0  0  0  0  0
    1.8756    1.5619    1.0226 H   0  0  0  0  0  0
    3.0332    0.2014    1.1343 H   0  0  0  0  0  0
    1.5985    0.2555    2.2030 H   0  0  0  0  0  0
  1  2  1  0  0  0
  1  6  1  0  0  0
  1  7  1  0  0  0
  1  8  1  0  0  0
  2  3  1  0  0  0
  2  4  1  0  0  0
  3  9  1  0  0  0
  3 10  1  0  0  0
  3 11  1  0  0  0
  4  5  2  0  0  0
M  END
>  <i_m_Spin_multiplicity> (1)
1

>  <s_j_Task> (1)
Single Point

>  <s_j_QM_Method> (1)
DFT(b3lyp-d3)

>  <s_j_QM_Basis> (1)
cc-pvtz(-f)

>  <i_j_Number_of_canonical_orbitals> (1)
169

>  <i_j_Geometry_convergence_category> (1)
0

>  <r_j_Gas_Phase_Energy> (1)
-264.571344596239

>  <r_j_Final_Energy> (1)
-264.571344596239

>  <r_j_HOMO> (1)
-0.237245816414343

>  <r_j_LUMO> (1)
-0.043708218771206

>  <r_j_Polarizability> (1)
46.3947587424912

>  <r_j_QM_Dipole_(debye)> (1)
4.03587768191545

>  <r_j_QM_Dipole_X_(debye)> (1)
-2.65849840942538

>  <r_j_QM_Dipole_Y_(debye)> (1)
2.33376543395085

>  <r_j_QM_Dipole_Z_(debye)> (1)
1.94273872915586

>  <r_j_Lowest_Frequency_(cm-1)> (1)
178.605223366403

>  <r_j_Highest_Frequency_(cm-1)> (1)
3106.76792304529

>  <r_j_2nd_Lowest_Frequency_(cm-1)> (1)
218.190870025925

>  <i_j_Num_Negative_Frequencies> (1)
0

>  <r_j_Zero_Point_Energy_(kcal/mol)> (1)
55.7889911510814

>  <r_j_Entropy_(cal/mol/K)_298.15K_1.00E+00atm> (1)
73.9060771104834

>  <r_j_Enthalpy_(kcal/mol)_298.15K_1.00E+00atm> (1)
4.17470040863048

>  <r_j_Free_Energy_(kcal/mol)_298.15K_1.00E+00atm> (1)
-17.8603964818601

>  <r_j_Internal_Energy_(kcal/mol)_298.15K_1.00E+00atm> (1)
3.58221481980321

>  <r_j_Heat_Capacity_(cal/mol/K)_298.15K_1.00E+00atm> (1)
19.2664305544932

>  <r_j_ln(Q)_298.15K_1.00E+00atm> (1)
30.1448622863753

>  <r_j_Total_Internal_Energy_(au)_298.15K_1.00E+00atm> (1)
-264.476730556436

>  <r_j_Total_Enthalpy_(au)_298.15K_1.00E+00atm> (1)
-264.475786370544

>  <r_j_Total_Free_Energy_(au)_298.15K_1.00E+00atm> (1)
-264.510901532855

>  <r_lp_tautomer_probability> (1)
1

>  <r_epik_Ionization_Penalty> (1)
  0.0000

>  <r_epik_Ionization_Penalty_Charging> (1)
  0.0000

>  <r_epik_Ionization_Penalty_Neutral> (1)
  0.0000

>  <r_epik_State_Penalty> (1)
  0.0000

>  <r_epik_Charging_Adjusted_Penalty> (1)
0

>  <i_epik_Tot_Q> (1)
0

>  <i_epik_Tot_abs_Q> (1)
0

>  <s_lp_Force_Field> (1)
S-OPLS

>  <r_lp_Energy> (1)
28.4638

>  <b_lp_Chiralities_Consistent> (1)
1

$$$$
