61278_Formic acid, 2-propenyl ester
                    3D
 Schrodinger Suite 2021-3.
 12 11  0  0  1  0            999 V2000
   -0.6687    1.1099    0.2690 C   0  0  0  0  0  0
    0.0254    0.0833   -0.2170 C   0  0  0  0  0  0
    1.4925   -0.1531   -0.0328 C   0  0  0  0  0  0
    2.0610    0.9093    0.7619 O   0  0  0  0  0  0
    3.3785    0.8143    1.0021 C   0  0  0  0  0  0
    4.1059   -0.0674    0.6155 O   0  0  0  0  0  0
   -0.1938    1.8840    0.8618 H   0  0  0  0  0  0
   -1.7342    1.2027    0.0857 H   0  0  0  0  0  0
   -0.4701   -0.6842   -0.8102 H   0  0  0  0  0  0
    1.6824   -1.1133    0.4642 H   0  0  0  0  0  0
    2.0136   -0.1968   -0.9979 H   0  0  0  0  0  0
    3.6932    1.6751    1.6126 H   0  0  0  0  0  0
  1  2  2  0  0  0
  1  7  1  0  0  0
  1  8  1  0  0  0
  2  3  1  0  0  0
  2  9  1  0  0  0
  3  4  1  0  0  0
  3 10  1  0  0  0
  3 11  1  0  0  0
  4  5  1  0  0  0
  5  6  2  0  0  0
  5 12  1  0  0  0
M  END
>  <i_m_Spin_multiplicity> (1)
1

>  <s_j_Task> (1)
Single Point

>  <s_j_QM_Method> (1)
DFT(b3lyp-d3)

>  <s_j_QM_Basis> (1)
cc-pvtz(-f)

>  <i_j_Number_of_canonical_orbitals> (1)
191

>  <i_j_Geometry_convergence_category> (1)
0

>  <r_j_Gas_Phase_Energy> (1)
-306.575533339725

>  <r_j_Final_Energy> (1)
-306.575533339725

>  <r_j_HOMO> (1)
-0.273223846339334

>  <r_j_LUMO> (1)
-0.0124424167673348

>  <r_j_Polarizability> (1)
53.1831144924514

>  <r_j_QM_Dipole_(debye)> (1)
1.77235389173461

>  <r_j_QM_Dipole_X_(debye)> (1)
-1.69728452427963

>  <r_j_QM_Dipole_Y_(debye)> (1)
0.505545213023523

>  <r_j_QM_Dipole_Z_(debye)> (1)
-0.0699113637165271

>  <r_j_Lowest_Frequency_(cm-1)> (1)
76.1044830464051

>  <r_j_Highest_Frequency_(cm-1)> (1)
3196.43047755743

>  <r_j_2nd_Lowest_Frequency_(cm-1)> (1)
211.906575211987

>  <i_j_Num_Negative_Frequencies> (1)
0

>  <r_j_Zero_Point_Energy_(kcal/mol)> (1)
59.5829762248078

>  <r_j_Entropy_(cal/mol/K)_298.15K_1.00E+00atm> (1)
77.7628973570688

>  <r_j_Enthalpy_(kcal/mol)_298.15K_1.00E+00atm> (1)
4.46198639688926

>  <r_j_Free_Energy_(kcal/mol)_298.15K_1.00E+00atm> (1)
-18.7230214501208

>  <r_j_Internal_Energy_(kcal/mol)_298.15K_1.00E+00atm> (1)
3.86950080806199

>  <r_j_Heat_Capacity_(cal/mol/K)_298.15K_1.00E+00atm> (1)
21.0821201454055

>  <r_j_ln(Q)_298.15K_1.00E+00atm> (1)
31.6008048181895

>  <r_j_Total_Internal_Energy_(au)_298.15K_1.00E+00atm> (1)
-306.474415380449

>  <r_j_Total_Enthalpy_(au)_298.15K_1.00E+00atm> (1)
-306.473471194556

>  <r_j_Total_Free_Energy_(au)_298.15K_1.00E+00atm> (1)
-306.510418856632

>  <r_lp_tautomer_probability> (1)
1

>  <r_epik_Ionization_Penalty> (1)
  0.0000

>  <r_epik_Ionization_Penalty_Charging> (1)
  0.0000

>  <r_epik_Ionization_Penalty_Neutral> (1)
  0.0000

>  <r_epik_State_Penalty> (1)
  0.0000

>  <r_epik_Charging_Adjusted_Penalty> (1)
0

>  <i_epik_Tot_Q> (1)
0

>  <i_epik_Tot_abs_Q> (1)
0

>  <s_lp_Force_Field> (1)
S-OPLS

>  <r_lp_Energy> (1)
-1.774024

>  <b_lp_Chiralities_Consistent> (1)
1

>  <s_epik_Chemistry_Notes> (1)
This compound has an ester and may undergo hydrolysis at high or low pH.

$$$$
