612828_Alpha-amyrone
                    3D
 Schrodinger Suite 2021-3.
 79 83  0  0  1  0            999 V2000
   -0.1666   -0.0359    0.1681 C   0  0  0  0  0  0
    1.3645   -0.1434    0.2161 C   0  0  0  0  0  0
    1.9560    0.1318   -1.1816 C   0  0  0  0  0  0
    3.4871    0.2422   -1.1909 C   0  0  0  0  0  0
    4.0214    1.3028   -0.2008 C   0  0  0  0  0  0
    5.5688    1.3767   -0.2623 C   0  0  0  0  0  0
    6.3470    0.2555    0.4416 C   0  0  0  0  0  0
    5.8665    0.0044    1.9042 C   0  0  0  0  0  0
    4.3574   -0.2709    1.7585 C   0  0  0  0  0  0
    3.8599   -1.5026    1.9315 C   0  0  0  0  0  0
    4.6508   -2.7382    2.2478 C   0  0  0  0  0  0
    6.1491   -2.5549    1.9693 C   0  0  0  0  0  0
    6.6215   -1.2130    2.6295 C   0  0  0  0  0  0
    8.1570   -1.0642    2.4831 C   0  0  0  0  0  0
    8.9668   -2.3320    2.7952 C   0  0  0  0  0  0
    8.5335   -3.5932    2.0134 C   0  0  0  0  0  0
    7.0010   -3.8534    2.2334 C   0  0  0  0  0  0
    6.5321   -4.9942    1.2890 C   0  0  0  0  0  0
    6.8874   -4.7793   -0.1878 C   0  0  0  0  0  0
    8.3974   -4.7524   -0.2921 C   0  0  0  0  0  0
    9.0055   -5.5392   -0.9946 O   0  0  0  0  0  0
    9.1182   -3.6758    0.5424 C   0  0  0  0  0  0
    9.0036   -2.3890   -0.3167 C   0  0  0  0  0  0
   10.6116   -4.0463    0.6272 C   0  0  0  0  0  0
    6.8287   -4.4300    3.6639 C   0  0  0  0  0  0
    6.2651   -1.1783    4.1386 C   0  0  0  0  0  0
    3.5327    0.9118    1.2442 C   0  0  0  0  0  0
    1.9774    0.7996    1.2876 C   0  0  0  0  0  0
    1.4494    0.5527    2.7129 C   0  0  0  0  0  0
    6.1090    1.2970    2.7299 C   0  0  0  0  0  0
    3.5145    2.7083   -0.5913 C   0  0  0  0  0  0
   -0.4798    1.0014   -0.0057 H   0  0  0  0  0  0
   -0.6353   -0.3763    1.0960 H   0  0  0  0  0  0
   -0.5712   -0.6445   -0.6482 H   0  0  0  0  0  0
    1.6089   -1.1802    0.4707 H   0  0  0  0  0  0
    1.6395   -0.6652   -1.8661 H   0  0  0  0  0  0
    1.5159    1.0554   -1.5800 H   0  0  0  0  0  0
    3.9192   -0.7327   -0.9334 H   0  0  0  0  0  0
    3.8341    0.4835   -2.2041 H   0  0  0  0  0  0
    5.8724    1.4097   -1.3169 H   0  0  0  0  0  0
    5.8840    2.3390    0.1566 H   0  0  0  0  0  0
    6.2413   -0.6700   -0.1330 H   0  0  0  0  0  0
    7.4080    0.5246    0.4153 H   0  0  0  0  0  0
    2.7990   -1.6714    1.8091 H   0  0  0  0  0  0
    4.4749   -3.0350    3.2905 H   0  0  0  0  0  0
    4.2440   -3.5570    1.6432 H   0  0  0  0  0  0
    6.2295   -2.3862    0.8916 H   0  0  0  0  0  0
    8.3983   -0.7421    1.4743 H   0  0  0  0  0  0
    8.5120   -0.2634    3.1418 H   0  0  0  0  0  0
   10.0269   -2.1248    2.6134 H   0  0  0  0  0  0
    8.8969   -2.5495    3.8668 H   0  0  0  0  0  0
    9.0239   -4.4410    2.5097 H   0  0  0  0  0  0
    7.0175   -5.9241    1.6139 H   0  0  0  0  0  0
    5.4584   -5.1705    1.4007 H   0  0  0  0  0  0
    6.5130   -5.5910   -0.8162 H   0  0  0  0  0  0
    6.4623   -3.8395   -0.5597 H   0  0  0  0  0  0
    9.6305   -1.5940    0.0946 H   0  0  0  0  0  0
    7.9836   -2.0123   -0.3945 H   0  0  0  0  0  0
    9.3650   -2.5974   -1.3289 H   0  0  0  0  0  0
   11.1698   -3.2905    1.1872 H   0  0  0  0  0  0
   11.0442   -4.1271   -0.3721 H   0  0  0  0  0  0
   10.7488   -5.0136    1.1189 H   0  0  0  0  0  0
    7.3176   -5.4083    3.7266 H   0  0  0  0  0  0
    5.7759   -4.5797    3.9170 H   0  0  0  0  0  0
    7.2707   -3.8071    4.4405 H   0  0  0  0  0  0
    6.5889   -2.0797    4.6542 H   0  0  0  0  0  0
    5.1897   -1.0735    4.2984 H   0  0  0  0  0  0
    6.7553   -0.3385    4.6358 H   0  0  0  0  0  0
    3.7641    1.7675    1.8915 H   0  0  0  0  0  0
    1.6239    1.8053    1.0210 H   0  0  0  0  0  0
    1.5741   -0.4823    3.0391 H   0  0  0  0  0  0
    0.3866    0.7999    2.7874 H   0  0  0  0  0  0
    1.9838    1.1855    3.4303 H   0  0  0  0  0  0
    7.1705    1.4123    2.9651 H   0  0  0  0  0  0
    5.5498    1.2902    3.6677 H   0  0  0  0  0  0
    5.8096    2.1939    2.1895 H   0  0  0  0  0  0
    3.8326    3.4509    0.1496 H   0  0  0  0  0  0
    2.4290    2.7760   -0.6763 H   0  0  0  0  0  0
    3.9355    3.0031   -1.5594 H   0  0  0  0  0  0
  1  2  1  0  0  0
  1 32  1  0  0  0
  1 33  1  0  0  0
  1 34  1  0  0  0
  2 28  1  0  0  0
  2  3  1  0  0  0
  2 35  1  0  0  0
  3  4  1  0  0  0
  3 36  1  0  0  0
  3 37  1  0  0  0
  4  5  1  0  0  0
  4 38  1  0  0  0
  4 39  1  0  0  0
  5 27  1  0  0  0
  5  6  1  0  0  0
  5 31  1  0  0  0
  6  7  1  0  0  0
  6 40  1  0  0  0
  6 41  1  0  0  0
  7  8  1  0  0  0
  7 42  1  0  0  0
  7 43  1  0  0  0
  8 13  1  0  0  0
  8  9  1  0  0  0
  8 30  1  0  0  0
  9 10  2  0  0  0
  9 27  1  0  0  0
 10 11  1  0  0  0
 10 44  1  0  0  0
 11 12  1  0  0  0
 11 45  1  0  0  0
 11 46  1  0  0  0
 12 17  1  0  0  0
 12 13  1  0  0  0
 12 47  1  0  0  0
 13 14  1  0  0  0
 13 26  1  0  0  0
 14 15  1  0  0  0
 14 48  1  0  0  0
 14 49  1  0  0  0
 15 16  1  0  0  0
 15 50  1  0  0  0
 15 51  1  0  0  0
 16 22  1  0  0  0
 16 17  1  0  0  0
 16 52  1  0  0  0
 17 18  1  0  0  0
 17 25  1  0  0  0
 18 19  1  0  0  0
 18 53  1  0  0  0
 18 54  1  0  0  0
 19 20  1  0  0  0
 19 55  1  0  0  0
 19 56  1  0  0  0
 20 21  2  0  0  0
 20 22  1  0  0  0
 22 23  1  0  0  0
 22 24  1  0  0  0
 23 57  1  0  0  0
 23 58  1  0  0  0
 23 59  1  0  0  0
 24 60  1  0  0  0
 24 61  1  0  0  0
 24 62  1  0  0  0
 25 63  1  0  0  0
 25 64  1  0  0  0
 25 65  1  0  0  0
 26 66  1  0  0  0
 26 67  1  0  0  0
 26 68  1  0  0  0
 27 28  1  0  0  0
 27 69  1  0  0  0
 28 29  1  0  0  0
 28 70  1  0  0  0
 29 71  1  0  0  0
 29 72  1  0  0  0
 29 73  1  0  0  0
 30 74  1  0  0  0
 30 75  1  0  0  0
 30 76  1  0  0  0
 31 77  1  0  0  0
 31 78  1  0  0  0
 31 79  1  0  0  0
M  END
>  <i_m_Spin_multiplicity> (1)
1

>  <s_j_Task> (1)
Single Point

>  <s_j_QM_Method> (1)
DFT(b3lyp-d3)

>  <s_j_QM_Basis> (1)
cc-pvtz(-f)

>  <i_j_Number_of_canonical_orbitals> (1)
1121

>  <i_j_Geometry_convergence_category> (1)
3

>  <r_j_Gas_Phase_Energy> (1)
-1247.81681951056

>  <r_j_Final_Energy> (1)
-1247.81681951056

>  <r_j_HOMO> (1)
-0.24520336892253

>  <r_j_LUMO> (1)
-0.0431902621637904

>  <r_j_Polarizability> (1)
328.840030013584

>  <r_j_QM_Dipole_(debye)> (1)
3.01823428227649

>  <r_j_QM_Dipole_X_(debye)> (1)
-1.35727760168742

>  <r_j_QM_Dipole_Y_(debye)> (1)
2.15387199065978

>  <r_j_QM_Dipole_Z_(debye)> (1)
1.62122519796541

>  <r_j_Lowest_Frequency_(cm-1)> (1)
46.4601139368915

>  <r_j_Highest_Frequency_(cm-1)> (1)
3176.15535265152

>  <r_j_2nd_Lowest_Frequency_(cm-1)> (1)
63.9249263433488

>  <i_j_Num_Negative_Frequencies> (1)
0

>  <r_j_Zero_Point_Energy_(kcal/mol)> (1)
455.457511381485

>  <r_j_Entropy_(cal/mol/K)_298.15K_1.00E+00atm> (1)
169.922247762518

>  <r_j_Enthalpy_(kcal/mol)_298.15K_1.00E+00atm> (1)
18.4992939397935

>  <r_j_Free_Energy_(kcal/mol)_298.15K_1.00E+00atm> (1)
-32.1630242306014

>  <r_j_Internal_Energy_(kcal/mol)_298.15K_1.00E+00atm> (1)
17.9068083509662

>  <r_j_Heat_Capacity_(cal/mol/K)_298.15K_1.00E+00atm> (1)
126.667932456533

>  <r_j_ln(Q)_298.15K_1.00E+00atm> (1)
54.2849055523235

>  <r_j_Total_Internal_Energy_(au)_298.15K_1.00E+00atm> (1)
-1247.06246544522

>  <r_j_Total_Enthalpy_(au)_298.15K_1.00E+00atm> (1)
-1247.06152125933

>  <r_j_Total_Free_Energy_(au)_298.15K_1.00E+00atm> (1)
-1247.14225680292

>  <r_lp_tautomer_probability> (1)
1

>  <r_epik_Ionization_Penalty> (1)
  0.0000

>  <r_epik_Ionization_Penalty_Charging> (1)
  0.0000

>  <r_epik_Ionization_Penalty_Neutral> (1)
  0.0000

>  <r_epik_State_Penalty> (1)
  0.0000

>  <r_epik_Charging_Adjusted_Penalty> (1)
0

>  <i_epik_Tot_Q> (1)
0

>  <i_epik_Tot_abs_Q> (1)
0

>  <s_lp_Force_Field> (1)
S-OPLS

>  <r_lp_Energy> (1)
88.1807

>  <b_lp_Chiralities_Consistent> (1)
1

$$$$
