6129_Carbaryl
                    3D
 Schrodinger Suite 2021-3.
 26 27  0  0  1  0            999 V2000
   -0.0005    0.0030   -0.0801 C   0  0  0  0  0  0
    1.4496    0.0484   -0.0250 N   0  0  0  0  0  0
    2.1737   -1.0974    0.0122 C   0  0  0  0  0  0
    1.7250   -2.2228   -0.0001 O   0  0  0  0  0  0
    3.5212   -0.7812    0.0653 O   0  0  0  0  0  0
    4.4110   -1.8558    0.0383 C   0  0  0  0  0  0
    4.8806   -2.3672    1.2209 C   0  0  0  0  0  0
    5.8241   -3.4207    1.2024 C   0  0  0  0  0  0
    6.2696   -3.9364    0.0079 C   0  0  0  0  0  0
    5.7963   -3.4192   -1.2278 C   0  0  0  0  0  0
    6.2332   -3.9301   -2.4790 C   0  0  0  0  0  0
    5.7575   -3.4087   -3.6599 C   0  0  0  0  0  0
    4.8222   -2.3460   -3.6465 C   0  0  0  0  0  0
    4.3760   -1.8254   -2.4538 C   0  0  0  0  0  0
    4.8452   -2.3481   -1.2213 C   0  0  0  0  0  0
   -0.3828    1.0250   -0.1090 H   0  0  0  0  0  0
   -0.4119   -0.5059    0.7974 H   0  0  0  0  0  0
   -0.3427   -0.5309   -0.9723 H   0  0  0  0  0  0
    1.9425    0.9268   -0.0133 H   0  0  0  0  0  0
    4.5144   -1.9576    2.1558 H   0  0  0  0  0  0
    6.1901   -3.8222    2.1423 H   0  0  0  0  0  0
    6.9905   -4.7495   -0.0065 H   0  0  0  0  0  0
    6.9521   -4.7448   -2.4864 H   0  0  0  0  0  0
    6.0993   -3.8110   -4.6090 H   0  0  0  0  0  0
    4.4571   -1.9413   -4.5858 H   0  0  0  0  0  0
    3.6638   -1.0077   -2.4384 H   0  0  0  0  0  0
  1  2  1  0  0  0
  1 16  1  0  0  0
  1 17  1  0  0  0
  1 18  1  0  0  0
  2  3  1  0  0  0
  2 19  1  0  0  0
  3  4  2  0  0  0
  3  5  1  0  0  0
  5  6  1  0  0  0
  6 15  1  0  0  0
  6  7  2  0  0  0
  7  8  1  0  0  0
  7 20  1  0  0  0
  8  9  2  0  0  0
  8 21  1  0  0  0
  9 10  1  0  0  0
  9 22  1  0  0  0
 10 15  1  0  0  0
 10 11  2  0  0  0
 11 12  1  0  0  0
 11 23  1  0  0  0
 12 13  2  0  0  0
 12 24  1  0  0  0
 13 14  1  0  0  0
 13 25  1  0  0  0
 14 15  2  0  0  0
 14 26  1  0  0  0
M  END
>  <i_m_Spin_multiplicity> (1)
1

>  <s_j_Task> (1)
Single Point

>  <s_j_QM_Method> (1)
DFT(b3lyp-d3)

>  <s_j_QM_Basis> (1)
cc-pvtz(-f)

>  <i_j_Number_of_canonical_orbitals> (1)
437

>  <i_j_Geometry_convergence_category> (1)
3

>  <r_j_Gas_Phase_Energy> (1)
-669.365575915936

>  <r_j_Final_Energy> (1)
-669.365575915936

>  <r_j_HOMO> (1)
-0.229935459028185

>  <r_j_LUMO> (1)
-0.0575956236246362

>  <r_j_Polarizability> (1)
150.869971063908

>  <r_j_QM_Dipole_(debye)> (1)
2.48404503846483

>  <r_j_QM_Dipole_X_(debye)> (1)
-0.135284153127836

>  <r_j_QM_Dipole_Y_(debye)> (1)
2.47534623043509

>  <r_j_QM_Dipole_Z_(debye)> (1)
-0.157603903837966

>  <r_j_Lowest_Frequency_(cm-1)> (1)
45.3474329263562

>  <r_j_Highest_Frequency_(cm-1)> (1)
3611.34385537632

>  <r_j_2nd_Lowest_Frequency_(cm-1)> (1)
68.9365367946981

>  <i_j_Num_Negative_Frequencies> (1)
0

>  <r_j_Zero_Point_Energy_(kcal/mol)> (1)
129.112460609562

>  <r_j_Entropy_(cal/mol/K)_298.15K_1.00E+00atm> (1)
109.154112299452

>  <r_j_Enthalpy_(kcal/mol)_298.15K_1.00E+00atm> (1)
8.35935478404819

>  <r_j_Free_Energy_(kcal/mol)_298.15K_1.00E+00atm> (1)
-24.1849437980334

>  <r_j_Internal_Energy_(kcal/mol)_298.15K_1.00E+00atm> (1)
7.76686919522092

>  <r_j_Heat_Capacity_(cal/mol/K)_298.15K_1.00E+00atm> (1)
48.6598994666036

>  <r_j_ln(Q)_298.15K_1.00E+00atm> (1)
40.8194633829042

>  <r_j_Total_Internal_Energy_(au)_298.15K_1.00E+00atm> (1)
-669.147444817764

>  <r_j_Total_Enthalpy_(au)_298.15K_1.00E+00atm> (1)
-669.146500631872

>  <r_j_Total_Free_Energy_(au)_298.15K_1.00E+00atm> (1)
-669.198363273215

>  <r_lp_tautomer_probability> (1)
1

>  <r_epik_Ionization_Penalty> (1)
  0.0000

>  <r_epik_Ionization_Penalty_Charging> (1)
  0.0000

>  <r_epik_Ionization_Penalty_Neutral> (1)
  0.0000

>  <r_epik_State_Penalty> (1)
  0.0000

>  <r_epik_Charging_Adjusted_Penalty> (1)
0

>  <i_epik_Tot_Q> (1)
0

>  <i_epik_Tot_abs_Q> (1)
0

>  <s_lp_Force_Field> (1)
S-OPLS

>  <r_lp_Energy> (1)
26.2825

>  <b_lp_Chiralities_Consistent> (1)
1

$$$$
