61303_2-Pentadecanone
                    3D
 Schrodinger Suite 2021-3.
 46 45  0  0  1  0            999 V2000
   -6.2061    4.7504    0.2004 C   0  0  0  0  0  0
   -4.6803    4.6225    0.1670 C   0  0  0  0  0  0
   -4.1986    3.1671    0.1302 C   0  0  0  0  0  0
   -2.6722    3.0340    0.0951 C   0  0  0  0  0  0
   -2.1818    1.5822    0.0542 C   0  0  0  0  0  0
   -0.6542    1.4617    0.0143 C   0  0  0  0  0  0
   -0.1526    0.0139   -0.0345 C   0  0  0  0  0  0
    1.3775   -0.0866   -0.0923 C   0  0  0  0  0  0
    1.9271   -1.5209   -0.0697 C   0  0  0  0  0  0
    1.5257   -2.3715   -1.2822 C   0  0  0  0  0  0
    2.2037   -3.7463   -1.3017 C   0  0  0  0  0  0
    1.7753   -4.6086   -2.4938 C   0  0  0  0  0  0
    2.4848   -5.9782   -2.5278 C   0  0  0  0  0  0
    1.9788   -6.8084   -3.7000 C   0  0  0  0  0  0
    1.0046   -7.5285   -3.5868 O   0  0  0  0  0  0
    2.7171   -6.6566   -5.0182 C   0  0  0  0  0  0
   -6.5223    5.7985    0.2260 H   0  0  0  0  0  0
   -6.6239    4.2541    1.0840 H   0  0  0  0  0  0
   -6.6599    4.2864   -0.6830 H   0  0  0  0  0  0
   -4.2855    5.1552   -0.7090 H   0  0  0  0  0  0
   -4.2496    5.1230    1.0451 H   0  0  0  0  0  0
   -4.5917    2.6322    1.0068 H   0  0  0  0  0  0
   -4.6289    2.6646   -0.7482 H   0  0  0  0  0  0
   -2.2816    3.5726   -0.7804 H   0  0  0  0  0  0
   -2.2439    3.5367    0.9742 H   0  0  0  0  0  0
   -2.5676    1.0419    0.9306 H   0  0  0  0  0  0
   -2.6097    1.0782   -0.8243 H   0  0  0  0  0  0
   -0.2712    2.0064   -0.8608 H   0  0  0  0  0  0
   -0.2269    1.9652    0.8934 H   0  0  0  0  0  0
   -0.5194   -0.5307    0.8478 H   0  0  0  0  0  0
   -0.5945   -0.4868   -0.9059 H   0  0  0  0  0  0
    1.7378    0.4233   -0.9975 H   0  0  0  0  0  0
    1.8003    0.4688    0.7559 H   0  0  0  0  0  0
    3.0236   -1.4791   -0.0146 H   0  0  0  0  0  0
    1.5959   -2.0241    0.8499 H   0  0  0  0  0  0
    0.4371   -2.5097   -1.2991 H   0  0  0  0  0  0
    1.7784   -1.8291   -2.2050 H   0  0  0  0  0  0
    3.2950   -3.6149   -1.3189 H   0  0  0  0  0  0
    1.9762   -4.2811   -0.3689 H   0  0  0  0  0  0
    0.6918   -4.7770   -2.4598 H   0  0  0  0  0  0
    1.9770   -4.0650   -3.4272 H   0  0  0  0  0  0
    3.5697   -5.8291   -2.5960 H   0  0  0  0  0  0
    2.2654   -6.5275   -1.6068 H   0  0  0  0  0  0
    3.7199   -7.0918   -4.9286 H   0  0  0  0  0  0
    2.8519   -5.5984   -5.2693 H   0  0  0  0  0  0
    2.1704   -7.1645   -5.8138 H   0  0  0  0  0  0
  1  2  1  0  0  0
  1 17  1  0  0  0
  1 18  1  0  0  0
  1 19  1  0  0  0
  2  3  1  0  0  0
  2 20  1  0  0  0
  2 21  1  0  0  0
  3  4  1  0  0  0
  3 22  1  0  0  0
  3 23  1  0  0  0
  4  5  1  0  0  0
  4 24  1  0  0  0
  4 25  1  0  0  0
  5  6  1  0  0  0
  5 26  1  0  0  0
  5 27  1  0  0  0
  6  7  1  0  0  0
  6 28  1  0  0  0
  6 29  1  0  0  0
  7  8  1  0  0  0
  7 30  1  0  0  0
  7 31  1  0  0  0
  8  9  1  0  0  0
  8 32  1  0  0  0
  8 33  1  0  0  0
  9 10  1  0  0  0
  9 34  1  0  0  0
  9 35  1  0  0  0
 10 11  1  0  0  0
 10 36  1  0  0  0
 10 37  1  0  0  0
 11 12  1  0  0  0
 11 38  1  0  0  0
 11 39  1  0  0  0
 12 13  1  0  0  0
 12 40  1  0  0  0
 12 41  1  0  0  0
 13 14  1  0  0  0
 13 42  1  0  0  0
 13 43  1  0  0  0
 14 15  2  0  0  0
 14 16  1  0  0  0
 16 44  1  0  0  0
 16 45  1  0  0  0
 16 46  1  0  0  0
M  END
>  <i_m_Spin_multiplicity> (1)
1

>  <s_j_Task> (1)
Single Point

>  <s_j_QM_Method> (1)
DFT(b3lyp-d3)

>  <s_j_QM_Basis> (1)
cc-pvtz(-f)

>  <i_j_Number_of_canonical_orbitals> (1)
634

>  <i_j_Geometry_convergence_category> (1)
0

>  <r_j_Gas_Phase_Energy> (1)
-665.184251695963

>  <r_j_Final_Energy> (1)
-665.184251695963

>  <r_j_HOMO> (1)
-0.264688749347304

>  <r_j_LUMO> (1)
-0.0367356605052932

>  <r_j_Polarizability> (1)
188.163736879642

>  <r_j_QM_Dipole_(debye)> (1)
2.99862956265083

>  <r_j_QM_Dipole_X_(debye)> (1)
2.12527376980541

>  <r_j_QM_Dipole_Y_(debye)> (1)
2.11532911617937

>  <r_j_QM_Dipole_Z_(debye)> (1)
-0.0193232405245602

>  <r_j_Lowest_Frequency_(cm-1)> (1)
32.3090011900619

>  <r_j_Highest_Frequency_(cm-1)> (1)
3099.65550342199

>  <r_j_2nd_Lowest_Frequency_(cm-1)> (1)
59.812130082707

>  <i_j_Num_Negative_Frequencies> (1)
0

>  <r_j_Zero_Point_Energy_(kcal/mol)> (1)
267.250710442333

>  <r_j_Entropy_(cal/mol/K)_298.15K_1.00E+00atm> (1)
141.615582255124

>  <r_j_Enthalpy_(kcal/mol)_298.15K_1.00E+00atm> (1)
12.7829428474835

>  <r_j_Free_Energy_(kcal/mol)_298.15K_1.00E+00atm> (1)
-29.4397430018818

>  <r_j_Internal_Energy_(kcal/mol)_298.15K_1.00E+00atm> (1)
12.1904572586563

>  <r_j_Heat_Capacity_(cal/mol/K)_298.15K_1.00E+00atm> (1)
73.17856453935

>  <r_j_ln(Q)_298.15K_1.00E+00atm> (1)
49.6885385181313

>  <r_j_Total_Internal_Energy_(au)_298.15K_1.00E+00atm> (1)
-664.738933846496

>  <r_j_Total_Enthalpy_(au)_298.15K_1.00E+00atm> (1)
-664.737989660603

>  <r_j_Total_Free_Energy_(au)_298.15K_1.00E+00atm> (1)
-664.80527579391

>  <r_lp_tautomer_probability> (1)
1

>  <r_epik_Ionization_Penalty> (1)
  0.0000

>  <r_epik_Ionization_Penalty_Charging> (1)
  0.0000

>  <r_epik_Ionization_Penalty_Neutral> (1)
  0.0000

>  <r_epik_State_Penalty> (1)
  0.0000

>  <r_epik_Charging_Adjusted_Penalty> (1)
0

>  <i_epik_Tot_Q> (1)
0

>  <i_epik_Tot_abs_Q> (1)
0

>  <s_lp_Force_Field> (1)
S-OPLS

>  <r_lp_Energy> (1)
6.59597

>  <b_lp_Chiralities_Consistent> (1)
1

$$$$
