617007_Methyl 6,8,11,13-abietatetraen-18-oate
                    3D
 Schrodinger Suite 2021-3.
 51 53  0  0  1  0            999 V2000
   -0.6518   -0.6026   -1.1608 C   0  0  0  0  0  0
   -0.0086    0.0825    0.0578 C   0  0  0  0  0  0
   -0.5167    1.5279    0.2102 C   0  0  0  0  0  0
    1.5114    0.0314    0.0009 C   0  0  0  0  0  0
    2.2422   -0.5896    1.0164 C   0  0  0  0  0  0
    3.6406   -0.6483    0.9972 C   0  0  0  0  0  0
    4.3565   -0.0517   -0.0689 C   0  0  0  0  0  0
    3.6249    0.5669   -1.0824 C   0  0  0  0  0  0
    2.2281    0.6050   -1.0552 C   0  0  0  0  0  0
    5.8878   -0.0125    0.0283 C   0  0  0  0  0  0
    6.6210    0.2443   -1.3077 C   0  0  0  0  0  0
    6.6229   -0.9469   -2.2676 C   0  0  0  0  0  0
    7.2548   -2.1701   -1.5925 C   0  0  0  0  0  0
    6.4903   -2.5756   -0.3024 C   0  0  0  0  0  0
    6.4283   -1.3284    0.6702 C   0  0  0  0  0  0
    5.6640   -1.6731    1.9229 C   0  0  0  0  0  0
    4.3689   -1.3528    2.0556 C   0  0  0  0  0  0
    5.1138   -3.1614   -0.6638 C   0  0  0  0  0  0
    7.2878   -3.6882    0.3919 C   0  0  0  0  0  0
    6.9244   -4.8366    0.5289 O   0  0  0  0  0  0
    8.4929   -3.2513    0.8394 O   0  0  0  0  0  0
    9.3004   -4.2477    1.4877 C   0  0  0  0  0  0
    6.2316    1.1744    0.9706 C   0  0  0  0  0  0
   -0.3097   -1.6374   -1.2578 H   0  0  0  0  0  0
   -0.3977   -0.0780   -2.0884 H   0  0  0  0  0  0
   -1.7437   -0.6079   -1.0711 H   0  0  0  0  0  0
   -0.3191   -0.4739    0.9521 H   0  0  0  0  0  0
   -0.0864    2.0057    1.0958 H   0  0  0  0  0  0
   -1.6082    1.5491    0.3039 H   0  0  0  0  0  0
   -0.2437    2.1329   -0.6615 H   0  0  0  0  0  0
    1.7119   -1.0535    1.8462 H   0  0  0  0  0  0
    4.1408    1.0348   -1.9144 H   0  0  0  0  0  0
    1.6967    1.0960   -1.8659 H   0  0  0  0  0  0
    6.2168    1.1398   -1.7922 H   0  0  0  0  0  0
    7.6637    0.4878   -1.0621 H   0  0  0  0  0  0
    5.6017   -1.1725   -2.5931 H   0  0  0  0  0  0
    7.1894   -0.6942   -3.1714 H   0  0  0  0  0  0
    7.2771   -3.0249   -2.2789 H   0  0  0  0  0  0
    8.2947   -1.9390   -1.3327 H   0  0  0  0  0  0
    7.4696   -1.1239    0.9424 H   0  0  0  0  0  0
    6.1739   -2.2482    2.6920 H   0  0  0  0  0  0
    3.8108   -1.6507    2.9406 H   0  0  0  0  0  0
    4.4954   -2.4306   -1.1829 H   0  0  0  0  0  0
    4.5782   -3.4852    0.2288 H   0  0  0  0  0  0
    5.2448   -4.0360   -1.3058 H   0  0  0  0  0  0
   10.2125   -3.7358    1.7951 H   0  0  0  0  0  0
    9.5304   -5.0653    0.7993 H   0  0  0  0  0  0
    8.7791   -4.6610    2.3554 H   0  0  0  0  0  0
    7.3133    1.2351    1.1375 H   0  0  0  0  0  0
    5.7420    1.0724    1.9410 H   0  0  0  0  0  0
    5.9004    2.1151    0.5192 H   0  0  0  0  0  0
  1  2  1  0  0  0
  1 24  1  0  0  0
  1 25  1  0  0  0
  1 26  1  0  0  0
  2  3  1  0  0  0
  2  4  1  0  0  0
  2 27  1  0  0  0
  3 28  1  0  0  0
  3 29  1  0  0  0
  3 30  1  0  0  0
  4  9  1  0  0  0
  4  5  2  0  0  0
  5  6  1  0  0  0
  5 31  1  0  0  0
  6 17  1  0  0  0
  6  7  2  0  0  0
  7  8  1  0  0  0
  7 10  1  0  0  0
  8  9  2  0  0  0
  8 32  1  0  0  0
  9 33  1  0  0  0
 10 15  1  0  0  0
 10 11  1  0  0  0
 10 23  1  0  0  0
 11 12  1  0  0  0
 11 34  1  0  0  0
 11 35  1  0  0  0
 12 13  1  0  0  0
 12 36  1  0  0  0
 12 37  1  0  0  0
 13 14  1  0  0  0
 13 38  1  0  0  0
 13 39  1  0  0  0
 14 15  1  0  0  0
 14 18  1  0  0  0
 14 19  1  0  0  0
 15 16  1  0  0  0
 15 40  1  0  0  0
 16 17  2  0  0  0
 16 41  1  0  0  0
 17 42  1  0  0  0
 18 43  1  0  0  0
 18 44  1  0  0  0
 18 45  1  0  0  0
 19 20  2  0  0  0
 19 21  1  0  0  0
 21 22  1  0  0  0
 22 46  1  0  0  0
 22 47  1  0  0  0
 22 48  1  0  0  0
 23 49  1  0  0  0
 23 50  1  0  0  0
 23 51  1  0  0  0
M  END
>  <i_m_Spin_multiplicity> (1)
1

>  <s_j_Task> (1)
Single Point

>  <s_j_QM_Method> (1)
DFT(b3lyp-d3)

>  <s_j_QM_Basis> (1)
cc-pvtz(-f)

>  <i_j_Number_of_canonical_orbitals> (1)
765

>  <i_j_Geometry_convergence_category> (1)
3

>  <r_j_Gas_Phase_Energy> (1)
-967.935387699401

>  <r_j_Final_Energy> (1)
-967.935387699401

>  <r_j_HOMO> (1)
-0.222669759843595

>  <r_j_LUMO> (1)
-0.0464849904587985

>  <r_j_Polarizability> (1)
247.039104183609

>  <r_j_QM_Dipole_(debye)> (1)
1.74181026383825

>  <r_j_QM_Dipole_X_(debye)> (1)
0.933938687687797

>  <r_j_QM_Dipole_Y_(debye)> (1)
1.47006591885234

>  <r_j_QM_Dipole_Z_(debye)> (1)
-0.0238268143298235

>  <r_j_Lowest_Frequency_(cm-1)> (1)
44.8355693237153

>  <r_j_Highest_Frequency_(cm-1)> (1)
3144.5458678925

>  <r_j_2nd_Lowest_Frequency_(cm-1)> (1)
59.230411306575

>  <i_j_Num_Negative_Frequencies> (1)
0

>  <r_j_Zero_Point_Energy_(kcal/mol)> (1)
279.943070903553

>  <r_j_Entropy_(cal/mol/K)_298.15K_1.00E+00atm> (1)
143.076337122784

>  <r_j_Enthalpy_(kcal/mol)_298.15K_1.00E+00atm> (1)
13.7370696278563

>  <r_j_Free_Energy_(kcal/mol)_298.15K_1.00E+00atm> (1)
-28.9211402853018

>  <r_j_Internal_Energy_(kcal/mol)_298.15K_1.00E+00atm> (1)
13.144584039029

>  <r_j_Heat_Capacity_(cal/mol/K)_298.15K_1.00E+00atm> (1)
87.5200330144201

>  <r_j_ln(Q)_298.15K_1.00E+00atm> (1)
48.8132383819602

>  <r_j_Total_Internal_Energy_(au)_298.15K_1.00E+00atm> (1)
-967.468322788106

>  <r_j_Total_Enthalpy_(au)_298.15K_1.00E+00atm> (1)
-967.467378602213

>  <r_j_Total_Free_Energy_(au)_298.15K_1.00E+00atm> (1)
-967.535358787298

>  <r_lp_tautomer_probability> (1)
1

>  <r_epik_Ionization_Penalty> (1)
  0.0000

>  <r_epik_Ionization_Penalty_Charging> (1)
  0.0000

>  <r_epik_Ionization_Penalty_Neutral> (1)
  0.0000

>  <r_epik_State_Penalty> (1)
  0.0000

>  <r_epik_Charging_Adjusted_Penalty> (1)
0

>  <i_epik_Tot_Q> (1)
0

>  <i_epik_Tot_abs_Q> (1)
0

>  <s_lp_Force_Field> (1)
S-OPLS

>  <r_lp_Energy> (1)
41.244159

>  <b_lp_Chiralities_Consistent> (1)
1

>  <s_epik_Chemistry_Notes> (1)
This compound has an ester and may undergo hydrolysis at high or low pH.

$$$$
