61868_N-Propoxypropanol
                    3D
 Schrodinger Suite 2021-3.
 22 21  0  0  1  0            999 V2000
   -2.7963    2.5144    0.0167 C   0  0  0  0  0  0
   -2.0913    1.1554    0.0106 C   0  0  0  0  0  0
   -0.5743    1.2883    0.0137 C   0  0  0  0  0  0
   -0.0097   -0.0104    0.0089 O   0  0  0  0  0  0
    1.4090   -0.0148    0.0089 C   0  0  0  0  0  0
    1.8866   -1.4594   -0.0249 C   0  0  0  0  0  0
    1.4120   -2.2040   -1.2666 C   0  0  0  0  0  0
    1.9601   -3.5187   -1.2139 O   0  0  0  0  0  0
   -3.8839    2.3949    0.0139 H   0  0  0  0  0  0
   -2.5251    3.1082   -0.8638 H   0  0  0  0  0  0
   -2.5286    3.0980    0.9049 H   0  0  0  0  0  0
   -2.3878    0.5656    0.8857 H   0  0  0  0  0  0
   -2.3851    0.5753   -0.8722 H   0  0  0  0  0  0
   -0.2381    1.8601   -0.8702 H   0  0  0  0  0  0
   -0.2409    1.8518    0.9038 H   0  0  0  0  0  0
    1.7924    0.5379   -0.8680 H   0  0  0  0  0  0
    1.7972    0.4958    0.9063 H   0  0  0  0  0  0
    2.9823   -1.4795    0.0059 H   0  0  0  0  0  0
    1.5252   -1.9865    0.8645 H   0  0  0  0  0  0
    0.3133   -2.2175   -1.2823 H   0  0  0  0  0  0
    1.7477   -1.6644   -2.1697 H   0  0  0  0  0  0
    1.5951   -4.0230   -1.9515 H   0  0  0  0  0  0
  1  2  1  0  0  0
  1  9  1  0  0  0
  1 10  1  0  0  0
  1 11  1  0  0  0
  2  3  1  0  0  0
  2 12  1  0  0  0
  2 13  1  0  0  0
  3  4  1  0  0  0
  3 14  1  0  0  0
  3 15  1  0  0  0
  4  5  1  0  0  0
  5  6  1  0  0  0
  5 16  1  0  0  0
  5 17  1  0  0  0
  6  7  1  0  0  0
  6 18  1  0  0  0
  6 19  1  0  0  0
  7  8  1  0  0  0
  7 20  1  0  0  0
  7 21  1  0  0  0
  8 22  1  0  0  0
M  END
>  <i_m_Spin_multiplicity> (1)
1

>  <s_j_Task> (1)
Single Point

>  <s_j_QM_Method> (1)
DFT(b3lyp-d3)

>  <s_j_QM_Basis> (1)
cc-pvtz(-f)

>  <i_j_Number_of_canonical_orbitals> (1)
309

>  <i_j_Geometry_convergence_category> (1)
0

>  <r_j_Gas_Phase_Energy> (1)
-387.658053540163

>  <r_j_Final_Energy> (1)
-387.658053540163

>  <r_j_HOMO> (1)
-0.258411590174599

>  <r_j_LUMO> (1)
0.0280541924348614

>  <r_j_Polarizability> (1)
84.4106964493827

>  <r_j_QM_Dipole_(debye)> (1)
1.7603328419557

>  <r_j_QM_Dipole_X_(debye)> (1)
-0.608799411978581

>  <r_j_QM_Dipole_Y_(debye)> (1)
1.34900691223222

>  <r_j_QM_Dipole_Z_(debye)> (1)
-0.953055791227382

>  <r_j_Lowest_Frequency_(cm-1)> (1)
73.1886040925388

>  <r_j_Highest_Frequency_(cm-1)> (1)
3774.17261954807

>  <r_j_2nd_Lowest_Frequency_(cm-1)> (1)
107.249117579367

>  <i_j_Num_Negative_Frequencies> (1)
0

>  <r_j_Zero_Point_Energy_(kcal/mol)> (1)
124.44384845927

>  <r_j_Entropy_(cal/mol/K)_298.15K_1.00E+00atm> (1)
96.1347140215164

>  <r_j_Enthalpy_(kcal/mol)_298.15K_1.00E+00atm> (1)
6.78738786666677

>  <r_j_Free_Energy_(kcal/mol)_298.15K_1.00E+00atm> (1)
-21.8751771188483

>  <r_j_Internal_Energy_(kcal/mol)_298.15K_1.00E+00atm> (1)
6.19490227783949

>  <r_j_Heat_Capacity_(cal/mol/K)_298.15K_1.00E+00atm> (1)
35.330611047981

>  <r_j_ln(Q)_298.15K_1.00E+00atm> (1)
36.9210281758018

>  <r_j_Total_Internal_Energy_(au)_298.15K_1.00E+00atm> (1)
-387.449867437828

>  <r_j_Total_Enthalpy_(au)_298.15K_1.00E+00atm> (1)
-387.448923251936

>  <r_j_Total_Free_Energy_(au)_298.15K_1.00E+00atm> (1)
-387.494599956999

>  <r_lp_tautomer_probability> (1)
1

>  <r_epik_Ionization_Penalty> (1)
  0.0000

>  <r_epik_Ionization_Penalty_Charging> (1)
  0.0000

>  <r_epik_Ionization_Penalty_Neutral> (1)
  0.0000

>  <r_epik_State_Penalty> (1)
  0.0000

>  <r_epik_Charging_Adjusted_Penalty> (1)
0

>  <i_epik_Tot_Q> (1)
0

>  <i_epik_Tot_abs_Q> (1)
0

>  <s_lp_Force_Field> (1)
S-OPLS

>  <r_lp_Energy> (1)
1.790525

>  <b_lp_Chiralities_Consistent> (1)
1

$$$$
