62134_4-Nitropyrene
                    3D
 Schrodinger Suite 2021-3.
 28 31  0  0  1  0            999 V2000
   -4.1845    2.4490    0.0000 C   0  0  0  0  0  0
   -4.8957    1.2506    0.0000 C   0  0  0  0  0  0
   -4.2345    0.0118    0.0000 C   0  0  0  0  0  0
   -2.8070   -0.0131    0.0000 C   0  0  0  0  0  0
   -2.0936    1.2195    0.0000 C   0  0  0  0  0  0
   -2.7940    2.4379    0.0000 C   0  0  0  0  0  0
   -0.6715    1.1807    0.0000 C   0  0  0  0  0  0
    0.0160    0.0005    0.0000 C   0  0  0  0  0  0
   -0.6570   -1.2893    0.0000 C   0  0  0  0  0  0
   -0.0296   -2.5483   -0.0001 C   0  0  0  0  0  0
   -0.7776   -3.7243    0.0000 C   0  0  0  0  0  0
   -2.1649   -3.6966    0.0000 C   0  0  0  0  0  0
   -2.8433   -2.4699    0.0000 C   0  0  0  0  0  0
   -2.0953   -1.2508    0.0000 C   0  0  0  0  0  0
   -4.2789   -2.4148    0.0000 C   0  0  0  0  0  0
   -4.9477   -1.2324    0.0000 C   0  0  0  0  0  0
    1.4905    0.1454    0.0000 N   0  3  1  0  0  0
    2.1957   -0.8652   -0.0001 O   0  0  0  0  0  0
    1.9555    1.2875    0.0001 O   0  5  0  0  0  0
   -4.7182    3.3942    0.0000 H   0  0  0  0  0  0
   -5.9822    1.2649    0.0000 H   0  0  0  0  0  0
   -2.2356    3.3691    0.0000 H   0  0  0  0  0  0
   -0.1127    2.1079    0.0000 H   0  0  0  0  0  0
    1.0461   -2.6042   -0.0001 H   0  0  0  0  0  0
   -0.2561   -4.6766    0.0000 H   0  0  0  0  0  0
   -2.7367   -4.6201    0.0001 H   0  0  0  0  0  0
   -4.8247   -3.3543    0.0000 H   0  0  0  0  0  0
   -6.0338   -1.2092    0.0000 H   0  0  0  0  0  0
  1  6  1  0  0  0
  1  2  2  0  0  0
  1 20  1  0  0  0
  2  3  1  0  0  0
  2 21  1  0  0  0
  3 16  1  0  0  0
  3  4  2  0  0  0
  4 14  1  0  0  0
  4  5  1  0  0  0
  5  6  2  0  0  0
  5  7  1  0  0  0
  6 22  1  0  0  0
  7  8  2  0  0  0
  7 23  1  0  0  0
  8  9  1  0  0  0
  8 17  1  0  0  0
  9 14  1  0  0  0
  9 10  2  0  0  0
 10 11  1  0  0  0
 10 24  1  0  0  0
 11 12  2  0  0  0
 11 25  1  0  0  0
 12 13  1  0  0  0
 12 26  1  0  0  0
 13 14  2  0  0  0
 13 15  1  0  0  0
 15 16  2  0  0  0
 15 27  1  0  0  0
 16 28  1  0  0  0
 17 18  2  0  0  0
 17 19  1  0  0  0
M  END
>  <i_m_Spin_multiplicity> (1)
1

>  <s_j_Task> (1)
Single Point

>  <s_j_QM_Method> (1)
DFT(b3lyp-d3)

>  <s_j_QM_Basis> (1)
cc-pvtz(-f)

>  <i_j_Number_of_canonical_orbitals> (1)
502

>  <i_j_Geometry_convergence_category> (1)
3

>  <r_j_Gas_Phase_Energy> (1)
-820.537737462804

>  <r_j_Final_Energy> (1)
-820.537737462804

>  <r_j_HOMO> (1)
-0.228289142882665

>  <r_j_LUMO> (1)
-0.107277019963834

>  <r_j_Polarizability> (1)
209.747202768146

>  <r_j_QM_Dipole_(debye)> (1)
5.25304875924483

>  <r_j_QM_Dipole_X_(debye)> (1)
-5.23451564012608

>  <r_j_QM_Dipole_Y_(debye)> (1)
-0.44087103752598

>  <r_j_QM_Dipole_Z_(debye)> (1)
9.24656569215696e-05

>  <r_j_Lowest_Frequency_(cm-1)> (1)
53.7606879706714

>  <r_j_Highest_Frequency_(cm-1)> (1)
3239.34456389953

>  <r_j_2nd_Lowest_Frequency_(cm-1)> (1)
76.6355142555199

>  <i_j_Num_Negative_Frequencies> (1)
0

>  <r_j_Zero_Point_Energy_(kcal/mol)> (1)
131.111127698456

>  <r_j_Entropy_(cal/mol/K)_298.15K_1.00E+00atm> (1)
108.228846281327

>  <r_j_Enthalpy_(kcal/mol)_298.15K_1.00E+00atm> (1)
8.28584580268327

>  <r_j_Free_Energy_(kcal/mol)_298.15K_1.00E+00atm> (1)
-23.9825847160943

>  <r_j_Internal_Energy_(kcal/mol)_298.15K_1.00E+00atm> (1)
7.693360213856

>  <r_j_Heat_Capacity_(cal/mol/K)_298.15K_1.00E+00atm> (1)
52.4700168417131

>  <r_j_ln(Q)_298.15K_1.00E+00atm> (1)
40.4779207601721

>  <r_j_Total_Internal_Energy_(au)_298.15K_1.00E+00atm> (1)
-820.316538429884

>  <r_j_Total_Enthalpy_(au)_298.15K_1.00E+00atm> (1)
-820.315594243992

>  <r_j_Total_Free_Energy_(au)_298.15K_1.00E+00atm> (1)
-820.36701726159

>  <r_lp_tautomer_probability> (1)
1

>  <r_epik_Ionization_Penalty> (1)
  0.0000

>  <r_epik_Ionization_Penalty_Charging> (1)
  0.0000

>  <r_epik_Ionization_Penalty_Neutral> (1)
  0.0000

>  <r_epik_State_Penalty> (1)
  0.0000

>  <r_epik_Charging_Adjusted_Penalty> (1)
0

>  <i_epik_Tot_Q> (1)
0

>  <i_epik_Tot_abs_Q> (1)
2

>  <s_lp_Force_Field> (1)
S-OPLS

>  <r_lp_Energy> (1)
46.9892

>  <b_lp_Chiralities_Consistent> (1)
1

$$$$
