62410_1-Methyl-2-n-butylbenzene
                    3D
 Schrodinger Suite 2021-3.
 27 27  0  0  1  0            999 V2000
   -2.1084    1.4958    0.0161 C   0  0  0  0  0  0
   -0.5775    1.4565    0.0248 C   0  0  0  0  0  0
   -0.0179    0.0303    0.0099 C   0  0  0  0  0  0
    1.5227   -0.0155    0.0251 C   0  0  0  0  0  0
    2.0604   -1.4302   -0.0124 C   0  0  0  0  0  0
    2.2985   -2.1039    1.1911 C   0  0  0  0  0  0
    2.7438   -3.4247    1.2128 C   0  0  0  0  0  0
    2.9607   -4.0936    0.0103 C   0  0  0  0  0  0
    2.7281   -3.4332   -1.1957 C   0  0  0  0  0  0
    2.2781   -2.1083   -1.2305 C   0  0  0  0  0  0
    2.0506   -1.4266   -2.5613 C   0  0  0  0  0  0
   -2.4851    2.5238    0.0270 H   0  0  0  0  0  0
   -2.5205    0.9794    0.8905 H   0  0  0  0  0  0
   -2.5096    1.0025   -0.8767 H   0  0  0  0  0  0
   -0.1891    2.0059   -0.8438 H   0  0  0  0  0  0
   -0.1992    1.9840    0.9112 H   0  0  0  0  0  0
   -0.3966   -0.5272    0.8769 H   0  0  0  0  0  0
   -0.3915   -0.5025   -0.8747 H   0  0  0  0  0  0
    1.9074    0.5684   -0.8193 H   0  0  0  0  0  0
    1.8807    0.4871    0.9323 H   0  0  0  0  0  0
    2.1303   -1.5782    2.1285 H   0  0  0  0  0  0
    2.9222   -3.9243    2.1608 H   0  0  0  0  0  0
    3.3098   -5.1223    0.0079 H   0  0  0  0  0  0
    2.9002   -3.9561   -2.1335 H   0  0  0  0  0  0
    2.2039   -2.1227   -3.3903 H   0  0  0  0  0  0
    2.7393   -0.5852   -2.7046 H   0  0  0  0  0  0
    1.0355   -1.0244   -2.6480 H   0  0  0  0  0  0
  1  2  1  0  0  0
  1 12  1  0  0  0
  1 13  1  0  0  0
  1 14  1  0  0  0
  2  3  1  0  0  0
  2 15  1  0  0  0
  2 16  1  0  0  0
  3  4  1  0  0  0
  3 17  1  0  0  0
  3 18  1  0  0  0
  4  5  1  0  0  0
  4 19  1  0  0  0
  4 20  1  0  0  0
  5 10  1  0  0  0
  5  6  2  0  0  0
  6  7  1  0  0  0
  6 21  1  0  0  0
  7  8  2  0  0  0
  7 22  1  0  0  0
  8  9  1  0  0  0
  8 23  1  0  0  0
  9 10  2  0  0  0
  9 24  1  0  0  0
 10 11  1  0  0  0
 11 25  1  0  0  0
 11 26  1  0  0  0
 11 27  1  0  0  0
M  END
>  <i_m_Spin_multiplicity> (1)
1

>  <s_j_Task> (1)
Single Point

>  <s_j_QM_Method> (1)
DFT(b3lyp-d3)

>  <s_j_QM_Basis> (1)
cc-pvtz(-f)

>  <i_j_Number_of_canonical_orbitals> (1)
389

>  <i_j_Geometry_convergence_category> (1)
3

>  <r_j_Gas_Phase_Energy> (1)
-428.983192081378

>  <r_j_Final_Energy> (1)
-428.983192081378

>  <r_j_HOMO> (1)
-0.24860537373318

>  <r_j_LUMO> (1)
-0.019458612005895

>  <r_j_Polarizability> (1)
127.20640006289

>  <r_j_QM_Dipole_(debye)> (1)
0.647698146407458

>  <r_j_QM_Dipole_X_(debye)> (1)
-0.25983113149943

>  <r_j_QM_Dipole_Y_(debye)> (1)
0.528536174950996

>  <r_j_QM_Dipole_Z_(debye)> (1)
-0.269536980267187

>  <r_j_Lowest_Frequency_(cm-1)> (1)
71.6198614870817

>  <r_j_Highest_Frequency_(cm-1)> (1)
3142.6197751814

>  <r_j_2nd_Lowest_Frequency_(cm-1)> (1)
93.0902070226013

>  <i_j_Num_Negative_Frequencies> (1)
0

>  <r_j_Zero_Point_Energy_(kcal/mol)> (1)
151.197878814196

>  <r_j_Entropy_(cal/mol/K)_298.15K_1.00E+00atm> (1)
100.396823267629

>  <r_j_Enthalpy_(kcal/mol)_298.15K_1.00E+00atm> (1)
7.38037408529376

>  <r_j_Free_Energy_(kcal/mol)_298.15K_1.00E+00atm> (1)
-22.5529387719499

>  <r_j_Internal_Energy_(kcal/mol)_298.15K_1.00E+00atm> (1)
6.78788849646649

>  <r_j_Heat_Capacity_(cal/mol/K)_298.15K_1.00E+00atm> (1)
42.6893189700604

>  <r_j_ln(Q)_298.15K_1.00E+00atm> (1)
38.064957523422

>  <r_j_Total_Internal_Energy_(au)_298.15K_1.00E+00atm> (1)
-428.731425733835

>  <r_j_Total_Enthalpy_(au)_298.15K_1.00E+00atm> (1)
-428.730481547943

>  <r_j_Total_Free_Energy_(au)_298.15K_1.00E+00atm> (1)
-428.778183318654

>  <r_lp_tautomer_probability> (1)
1

>  <r_epik_Ionization_Penalty> (1)
  0.0000

>  <r_epik_Ionization_Penalty_Charging> (1)
  0.0000

>  <r_epik_Ionization_Penalty_Neutral> (1)
  0.0000

>  <r_epik_State_Penalty> (1)
  0.0000

>  <r_epik_Charging_Adjusted_Penalty> (1)
0

>  <i_epik_Tot_Q> (1)
0

>  <i_epik_Tot_abs_Q> (1)
0

>  <s_lp_Force_Field> (1)
S-OPLS

>  <r_lp_Energy> (1)
10.2004

>  <b_lp_Chiralities_Consistent> (1)
1

$$$$
