6328_Methyl iodide
                    3D
 Schrodinger Suite 2021-3.
  5  4  0  0  1  0            999 V2000
    0.9544    0.9555    0.5411 C   0  0  0  0  0  0
    1.5279    1.9868    2.3741 I   0  0  0  0  0  0
   -0.1292    0.8390    0.5585 H   0  0  0  0  0  0
    1.2757    1.5758   -0.2956 H   0  0  0  0  0  0
    1.4598   -0.0102    0.5392 H   0  0  0  0  0  0
  1  2  1  0  0  0
  1  3  1  0  0  0
  1  4  1  0  0  0
  1  5  1  0  0  0
M  END
>  <s_lp_Force_Field> (1)
S-OPLS

>  <r_lp_Energy> (1)
0.693744

>  <b_lp_Chiralities_Consistent> (1)
1

>  <r_epik_Ionization_Penalty> (1)
  0.0000

>  <r_epik_Ionization_Penalty_Charging> (1)
  0.0000

>  <r_epik_Ionization_Penalty_Neutral> (1)
  0.0000

>  <r_epik_State_Penalty> (1)
  0.0000

>  <r_epik_Charging_Adjusted_Penalty> (1)
0

>  <i_epik_Tot_Q> (1)
0

>  <i_epik_Tot_abs_Q> (1)
0

>  <i_m_Spin_multiplicity> (1)
1

>  <s_j_Task> (1)
Single Point

>  <s_j_QM_Method> (1)
DFT(b3lyp-d3)

>  <s_j_QM_Basis> (1)
ermler2**

>  <i_j_Number_of_canonical_orbitals> (1)
47

>  <r_j_Gas_Phase_Energy> (1)
-151.369512129363

>  <r_j_Final_Energy> (1)
-151.369512129363

>  <r_j_HOMO> (1)
-0.245184980947866

>  <r_j_LUMO> (1)
-0.0326368605802651

>  <r_j_Polarizability> (1)
31.1777934362071

>  <r_j_QM_Dipole_(debye)> (1)
1.50832883827074

>  <r_j_QM_Dipole_X_(debye)> (1)
-0.396775244541625

>  <r_j_QM_Dipole_Y_(debye)> (1)
-0.713528410663798

>  <r_j_QM_Dipole_Z_(debye)> (1)
-1.26826751785799

>  <r_j_Lowest_Frequency_(cm-1)> (1)
526.035449166246

>  <r_j_Highest_Frequency_(cm-1)> (1)
3196.29321243615

>  <r_j_2nd_Lowest_Frequency_(cm-1)> (1)
900.133569483331

>  <i_j_Num_Negative_Frequencies> (1)
0

>  <r_j_Zero_Point_Energy_(kcal/mol)> (1)
22.9544718746474

>  <r_j_Entropy_(cal/mol/K)_298.15K_1.00E+00atm> (1)
62.8971133382917

>  <r_j_Enthalpy_(kcal/mol)_298.15K_1.00E+00atm> (1)
2.58047665832899

>  <r_j_Free_Energy_(kcal/mol)_298.15K_1.00E+00atm> (1)
-16.1722976834827

>  <r_j_Internal_Energy_(kcal/mol)_298.15K_1.00E+00atm> (1)
1.98799106950171

>  <r_j_Heat_Capacity_(cal/mol/K)_298.15K_1.00E+00atm> (1)
8.46409124103313

>  <r_j_ln(Q)_298.15K_1.00E+00atm> (1)
27.29568109073

>  <r_j_Total_Internal_Energy_(au)_298.15K_1.00E+00atm> (1)
-151.3297637843

>  <r_j_Total_Enthalpy_(au)_298.15K_1.00E+00atm> (1)
-151.328819598408

>  <r_j_Total_Free_Energy_(au)_298.15K_1.00E+00atm> (1)
-151.358704046752

>  <r_lp_tautomer_probability> (1)
1

>  <s_m_source_file> (1)
ligprep_last.maegz

>  <i_m_source_file_index> (1)
5

$$$$
