6337_Ethyl chloride
                    3D
 Schrodinger Suite 2021-3.
  8  7  0  0  1  0            999 V2000
   -0.0343    0.0077    0.0000 C   0  0  0  0  0  0
    1.4845    0.0093    0.0000 C   0  0  0  0  0  0
    2.1502   -1.6876    0.0000 Cl  0  0  0  0  0  0
   -0.3974    1.0418    0.0000 H   0  0  0  0  0  0
   -0.4256   -0.4975    0.8867 H   0  0  0  0  0  0
   -0.4256   -0.4976   -0.8866 H   0  0  0  0  0  0
    1.8938    0.4945   -0.8880 H   0  0  0  0  0  0
    1.8938    0.4944    0.8881 H   0  0  0  0  0  0
  1  2  1  0  0  0
  1  4  1  0  0  0
  1  5  1  0  0  0
  1  6  1  0  0  0
  2  3  1  0  0  0
  2  7  1  0  0  0
  2  8  1  0  0  0
M  END
>  <i_m_Spin_multiplicity> (1)
1

>  <s_j_Task> (1)
Single Point

>  <s_j_QM_Method> (1)
DFT(b3lyp-d3)

>  <s_j_QM_Basis> (1)
cc-pvtz(-f)

>  <i_j_Number_of_canonical_orbitals> (1)
118

>  <i_j_Geometry_convergence_category> (1)
0

>  <r_j_Gas_Phase_Energy> (1)
-539.496407008195

>  <r_j_Final_Energy> (1)
-539.496407008195

>  <r_j_HOMO> (1)
-0.301767291953851

>  <r_j_LUMO> (1)
0.00869334077777643

>  <r_j_Polarizability> (1)
37.6523375305417

>  <r_j_QM_Dipole_(debye)> (1)
2.16805303969112

>  <r_j_QM_Dipole_X_(debye)> (1)
-0.972499794066996

>  <r_j_QM_Dipole_Y_(debye)> (1)
1.93770434624254

>  <r_j_QM_Dipole_Z_(debye)> (1)
-2.51596135467776e-06

>  <r_j_Lowest_Frequency_(cm-1)> (1)
316.183474470917

>  <r_j_Highest_Frequency_(cm-1)> (1)
3095.47265988592

>  <r_j_2nd_Lowest_Frequency_(cm-1)> (1)
336.724232046095

>  <i_j_Num_Negative_Frequencies> (1)
0

>  <r_j_Zero_Point_Energy_(kcal/mol)> (1)
41.5780140113587

>  <r_j_Entropy_(cal/mol/K)_298.15K_1.00E+00atm> (1)
65.3376555810508

>  <r_j_Enthalpy_(kcal/mol)_298.15K_1.00E+00atm> (1)
3.07260246532166

>  <r_j_Free_Energy_(kcal/mol)_298.15K_1.00E+00atm> (1)
-16.4078195461686

>  <r_j_Internal_Energy_(kcal/mol)_298.15K_1.00E+00atm> (1)
2.48011687649438

>  <r_j_Heat_Capacity_(cal/mol/K)_298.15K_1.00E+00atm> (1)
12.3516654192515

>  <r_j_ln(Q)_298.15K_1.00E+00atm> (1)
27.6931960128265

>  <r_j_Total_Internal_Energy_(au)_298.15K_1.00E+00atm> (1)
-539.426195907018

>  <r_j_Total_Enthalpy_(au)_298.15K_1.00E+00atm> (1)
-539.425251721126

>  <r_j_Total_Free_Energy_(au)_298.15K_1.00E+00atm> (1)
-539.45629574985

>  <r_lp_tautomer_probability> (1)
1

>  <r_epik_Ionization_Penalty> (1)
  0.0000

>  <r_epik_Ionization_Penalty_Charging> (1)
  0.0000

>  <r_epik_Ionization_Penalty_Neutral> (1)
  0.0000

>  <r_epik_State_Penalty> (1)
  0.0000

>  <r_epik_Charging_Adjusted_Penalty> (1)
0

>  <i_epik_Tot_Q> (1)
0

>  <i_epik_Tot_abs_Q> (1)
0

>  <s_lp_Force_Field> (1)
S-OPLS

>  <r_lp_Energy> (1)
-0.257876

>  <b_lp_Chiralities_Consistent> (1)
1

$$$$
