6348_Carbon disulfide
                    3D
 Schrodinger Suite 2021-3.
  3  2  0  0  1  0            999 V2000
    0.0000    0.0000    1.5629 S   0  0  0  0  0  0
    0.0000    0.0000   -1.5629 S   0  0  0  0  0  0
    0.0000    0.0000    0.0000 C   0  0  0  0  0  0
  1  3  2  0  0  0
  2  3  2  0  0  0
M  END
>  <i_m_Spin_multiplicity> (1)
1

>  <s_j_Task> (1)
Single Point

>  <s_j_QM_Method> (1)
DFT(b3lyp-d3)

>  <s_j_QM_Basis> (1)
cc-pvtz(-f)

>  <i_j_Number_of_canonical_orbitals> (1)
77

>  <r_j_Gas_Phase_Energy> (1)
-834.565454869469

>  <r_j_Final_Energy> (1)
-834.565454869469

>  <r_j_Polarizability> (1)
47.1923486946263

>  <r_j_QM_Dipole_(debye)> (1)
7.21964795689067e-06

>  <r_j_QM_Dipole_X_(debye)> (1)
-1.3396731328399e-07

>  <r_j_QM_Dipole_Y_(debye)> (1)
2.32605564852454e-08

>  <r_j_QM_Dipole_Z_(debye)> (1)
7.21836742809058e-06

>  <r_j_Zero_Point_Energy_(kcal/mol)> (1)
4.26656600464562

>  <r_j_Entropy_(cal/mol/K)_298.15K_1.00E+00atm> (1)
56.8271045518841

>  <r_j_Enthalpy_(kcal/mol)_298.15K_1.00E+00atm> (1)
2.54653120831397

>  <r_j_Free_Energy_(kcal/mol)_298.15K_1.00E+00atm> (1)
-14.3964700138303

>  <r_j_Internal_Energy_(kcal/mol)_298.15K_1.00E+00atm> (1)
1.9540456194867

>  <r_j_Heat_Capacity_(cal/mol/K)_298.15K_1.00E+00atm> (1)
8.88332431420416

>  <r_j_ln(Q)_298.15K_1.00E+00atm> (1)
24.2984306881213

>  <r_j_Total_Internal_Energy_(au)_298.15K_1.00E+00atm> (1)
-834.555541693778

>  <r_j_Total_Enthalpy_(au)_298.15K_1.00E+00atm> (1)
-834.554597507885

>  <r_j_Total_Free_Energy_(au)_298.15K_1.00E+00atm> (1)
-834.581597899166

>  <r_j_HOMO> (1)
-0.279148776415666

>  <r_j_LUMO> (1)
-0.079724603363212

>  <r_j_Lowest_Frequency_(cm-1)> (1)
399.081392208102

>  <r_j_Highest_Frequency_(cm-1)> (1)
1523.57344936175

>  <r_j_2nd_Lowest_Frequency_(cm-1)> (1)
399.083389367585

>  <i_j_Num_Negative_Frequencies> (1)
0

>  <i_j_Geometry_convergence_category> (1)
0

$$$$
