6366_1,1-dichloroethene
                    3D
 Schrodinger Suite 2021-3.
  6  5  0  0  1  0            999 V2000
    1.0557   -0.4280    1.1244 C   0  0  0  0  0  0
    0.2572    0.2422    0.2997 C   0  0  0  0  0  0
    0.8456    1.4662   -0.7985 Cl  0  0  0  0  0  0
   -1.4666   -0.0288    0.2255 Cl  0  0  0  0  0  0
    2.1205   -0.2301    1.1399 H   0  0  0  0  0  0
    0.6510   -1.1801    1.7906 H   0  0  0  0  0  0
  1  2  2  0  0  0
  1  5  1  0  0  0
  1  6  1  0  0  0
  2  3  1  0  0  0
  2  4  1  0  0  0
M  END
>  <i_m_Spin_multiplicity> (1)
1

>  <s_j_Task> (1)
Single Point

>  <s_j_QM_Method> (1)
DFT(b3lyp-d3)

>  <s_j_QM_Basis> (1)
cc-pvtz(-f)

>  <i_j_Number_of_canonical_orbitals> (1)
118

>  <i_j_Geometry_convergence_category> (1)
0

>  <r_j_Gas_Phase_Energy> (1)
-997.879476226677

>  <r_j_Final_Energy> (1)
-997.879476226677

>  <r_j_HOMO> (1)
-0.27231648586861

>  <r_j_LUMO> (1)
-0.0325290367704392

>  <r_j_Polarizability> (1)
47.3093206223712

>  <r_j_QM_Dipole_(debye)> (1)
1.34892401868479

>  <r_j_QM_Dipole_X_(debye)> (1)
0.810395251229568

>  <r_j_QM_Dipole_Y_(debye)> (1)
-0.680165757944703

>  <r_j_QM_Dipole_Z_(debye)> (1)
0.836797518333315

>  <r_j_Lowest_Frequency_(cm-1)> (1)
294.096052694074

>  <r_j_Highest_Frequency_(cm-1)> (1)
3221.91264158801

>  <r_j_2nd_Lowest_Frequency_(cm-1)> (1)
394.154758292689

>  <i_j_Num_Negative_Frequencies> (1)
0

>  <r_j_Zero_Point_Energy_(kcal/mol)> (1)
20.9687836525883

>  <r_j_Entropy_(cal/mol/K)_298.15K_1.00E+00atm> (1)
70.0983391992624

>  <r_j_Enthalpy_(kcal/mol)_298.15K_1.00E+00atm> (1)
3.26508586967615

>  <r_j_Free_Energy_(kcal/mol)_298.15K_1.00E+00atm> (1)
-17.6347339625839

>  <r_j_Internal_Energy_(kcal/mol)_298.15K_1.00E+00atm> (1)
2.67260028084887

>  <r_j_Heat_Capacity_(cal/mol/K)_298.15K_1.00E+00atm> (1)
13.8746741017113

>  <r_j_ln(Q)_298.15K_1.00E+00atm> (1)
29.7639880110653

>  <r_j_Total_Internal_Energy_(au)_298.15K_1.00E+00atm> (1)
-997.841801283008

>  <r_j_Total_Enthalpy_(au)_298.15K_1.00E+00atm> (1)
-997.840857097116

>  <r_j_Total_Free_Energy_(au)_298.15K_1.00E+00atm> (1)
-997.874163080263

>  <r_lp_tautomer_probability> (1)
1

>  <r_epik_Ionization_Penalty> (1)
  0.0000

>  <r_epik_Ionization_Penalty_Charging> (1)
  0.0000

>  <r_epik_Ionization_Penalty_Neutral> (1)
  0.0000

>  <r_epik_State_Penalty> (1)
  0.0000

>  <r_epik_Charging_Adjusted_Penalty> (1)
0

>  <i_epik_Tot_Q> (1)
0

>  <i_epik_Tot_abs_Q> (1)
0

>  <s_lp_Force_Field> (1)
S-OPLS

>  <r_lp_Energy> (1)
-0.369475

>  <b_lp_Chiralities_Consistent> (1)
1

$$$$
