6371_Phosgene
                    3D
 Schrodinger Suite 2021-3.
  4  3  0  0  1  0            999 V2000
    0.0000    1.4652   -0.4752 Cl  0  0  0  0  0  0
    0.0000   -1.4652   -0.4752 Cl  0  0  0  0  0  0
    0.0000    0.0000    1.6937 O   0  0  0  0  0  0
    0.0000    0.0000    0.5121 C   0  0  0  0  0  0
  1  4  1  0  0  0
  2  4  1  0  0  0
  3  4  2  0  0  0
M  END
>  <i_m_Spin_multiplicity> (1)
1

>  <s_j_Task> (1)
Single Point

>  <s_j_QM_Method> (1)
DFT(b3lyp-d3)

>  <s_j_QM_Basis> (1)
cc-pvtz(-f)

>  <i_j_Number_of_canonical_orbitals> (1)
100

>  <r_j_Gas_Phase_Energy> (1)
-1033.83205725136

>  <r_j_Final_Energy> (1)
-1033.83205725136

>  <r_j_Polarizability> (1)
38.1289225139407

>  <r_j_QM_Dipole_(debye)> (1)
1.16117196514402

>  <r_j_QM_Dipole_X_(debye)> (1)
2.74960640391889e-06

>  <r_j_QM_Dipole_Y_(debye)> (1)
-2.19012051568299e-05

>  <r_j_QM_Dipole_Z_(debye)> (1)
-1.16117196493422

>  <r_j_Zero_Point_Energy_(kcal/mol)> (1)
6.46159868463973

>  <r_j_Entropy_(cal/mol/K)_298.15K_1.00E+00atm> (1)
67.8196255400818

>  <r_j_Enthalpy_(kcal/mol)_298.15K_1.00E+00atm> (1)
3.07834363534162

>  <r_j_Free_Energy_(kcal/mol)_298.15K_1.00E+00atm> (1)
-17.1420777194338

>  <r_j_Internal_Energy_(kcal/mol)_298.15K_1.00E+00atm> (1)
2.48585804651435

>  <r_j_Heat_Capacity_(cal/mol/K)_298.15K_1.00E+00atm> (1)
11.8540004297725

>  <r_j_ln(Q)_298.15K_1.00E+00atm> (1)
28.9324804563831

>  <r_j_Total_Internal_Energy_(au)_298.15K_1.00E+00atm> (1)
-1033.81779857136

>  <r_j_Total_Enthalpy_(au)_298.15K_1.00E+00atm> (1)
-1033.81685438547

>  <r_j_Total_Free_Energy_(au)_298.15K_1.00E+00atm> (1)
-1033.84907767822

>  <r_j_HOMO> (1)
-0.329636171909339

>  <r_j_LUMO> (1)
-0.0725304808480396

>  <r_j_Lowest_Frequency_(cm-1)> (1)
294.466979536112

>  <r_j_Highest_Frequency_(cm-1)> (1)
1819.73896978871

>  <r_j_2nd_Lowest_Frequency_(cm-1)> (1)
434.511734590055

>  <i_j_Num_Negative_Frequencies> (1)
0

>  <i_j_Geometry_convergence_category> (1)
0

$$$$
