6372_Chlorodifluoromethane
                    3D
 Schrodinger Suite 2021-3.
  5  4  0  0  1  0            999 V2000
   -0.0890    0.5534    0.3860 C   0  0  0  0  0  0
   -0.8545   -0.4397   -0.0924 F   0  0  0  0  0  0
    0.3731    1.2776   -0.6451 F   0  0  0  0  0  0
    1.2981   -0.1469    1.2909 Cl  0  0  0  0  0  0
   -0.6628    1.1836    1.0695 H   0  0  0  0  0  0
  1  2  1  0  0  0
  1  3  1  0  0  0
  1  4  1  0  0  0
  1  5  1  0  0  0
M  END
>  <i_m_Spin_multiplicity> (1)
1

>  <s_j_Task> (1)
Single Point

>  <s_j_QM_Method> (1)
DFT(b3lyp-d3)

>  <s_j_QM_Basis> (1)
cc-pvtz(-f)

>  <i_j_Number_of_canonical_orbitals> (1)
105

>  <i_j_Geometry_convergence_category> (1)
0

>  <r_j_Gas_Phase_Energy> (1)
-698.710443209357

>  <r_j_Final_Energy> (1)
-698.710443209357

>  <r_j_HOMO> (1)
-0.344908195372302

>  <r_j_LUMO> (1)
-0.0103423169255475

>  <r_j_Polarizability> (1)
25.7344992431426

>  <r_j_QM_Dipole_(debye)> (1)
1.45519381318159

>  <r_j_QM_Dipole_X_(debye)> (1)
-0.802013950595081

>  <r_j_QM_Dipole_Y_(debye)> (1)
0.851732296099091

>  <r_j_QM_Dipole_Z_(debye)> (1)
0.865398609170724

>  <r_j_Lowest_Frequency_(cm-1)> (1)
357.184595890489

>  <r_j_Highest_Frequency_(cm-1)> (1)
3074.42101935188

>  <r_j_2nd_Lowest_Frequency_(cm-1)> (1)
397.401446218262

>  <i_j_Num_Negative_Frequencies> (1)
0

>  <r_j_Zero_Point_Energy_(kcal/mol)> (1)
14.4745101012715

>  <r_j_Entropy_(cal/mol/K)_298.15K_1.00E+00atm> (1)
67.3222614974756

>  <r_j_Enthalpy_(kcal/mol)_298.15K_1.00E+00atm> (1)
2.98725557455021

>  <r_j_Free_Energy_(kcal/mol)_298.15K_1.00E+00atm> (1)
-17.0848766909221

>  <r_j_Internal_Energy_(kcal/mol)_298.15K_1.00E+00atm> (1)
2.39476998572293

>  <r_j_Heat_Capacity_(cal/mol/K)_298.15K_1.00E+00atm> (1)
11.5391066469599

>  <r_j_ln(Q)_298.15K_1.00E+00atm> (1)
28.8359362878999

>  <r_j_Total_Internal_Energy_(au)_298.15K_1.00E+00atm> (1)
-698.683560300184

>  <r_j_Total_Enthalpy_(au)_298.15K_1.00E+00atm> (1)
-698.682616114292

>  <r_j_Total_Free_Energy_(au)_298.15K_1.00E+00atm> (1)
-698.714603093334

>  <r_lp_tautomer_probability> (1)
1

>  <r_epik_Ionization_Penalty> (1)
  0.0000

>  <r_epik_Ionization_Penalty_Charging> (1)
  0.0000

>  <r_epik_Ionization_Penalty_Neutral> (1)
  0.0000

>  <r_epik_State_Penalty> (1)
  0.0000

>  <r_epik_Charging_Adjusted_Penalty> (1)
0

>  <i_epik_Tot_Q> (1)
0

>  <i_epik_Tot_abs_Q> (1)
0

>  <s_lp_Force_Field> (1)
S-OPLS

>  <r_lp_Energy> (1)
0.149908

>  <b_lp_Chiralities_Consistent> (1)
1

$$$$
