6386_Tert-butyl alcohol
                    3D
 Schrodinger Suite 2021-3.
 15 14  0  0  1  0            999 V2000
   -0.4532    1.4412    0.0000 C   0  0  0  0  0  0
    0.0106   -0.0161    0.0000 C   0  0  0  0  0  0
   -0.4716   -0.7419    1.2644 C   0  0  0  0  0  0
   -0.4718   -0.7420   -1.2644 C   0  0  0  0  0  0
    1.4455    0.0538   -0.0001 O   0  0  0  0  0  0
   -1.5459    1.5022   -0.0003 H   0  0  0  0  0  0
   -0.0721    1.9572   -0.8859 H   0  0  0  0  0  0
   -0.0727    1.9571    0.8863 H   0  0  0  0  0  0
   -0.0875   -0.2388    2.1564 H   0  0  0  0  0  0
   -0.1143   -1.7790    1.2757 H   0  0  0  0  0  0
   -1.5650   -0.7663    1.3189 H   0  0  0  0  0  0
   -1.5652   -0.7665   -1.3187 H   0  0  0  0  0  0
   -0.1143   -1.7790   -1.2756 H   0  0  0  0  0  0
   -0.0878   -0.2389   -2.1564 H   0  0  0  0  0  0
    1.7812   -0.8531    0.0001 H   0  0  0  0  0  0
  1  2  1  0  0  0
  1  6  1  0  0  0
  1  7  1  0  0  0
  1  8  1  0  0  0
  2  3  1  0  0  0
  2  4  1  0  0  0
  2  5  1  0  0  0
  3  9  1  0  0  0
  3 10  1  0  0  0
  3 11  1  0  0  0
  4 12  1  0  0  0
  4 13  1  0  0  0
  4 14  1  0  0  0
  5 15  1  0  0  0
M  END
>  <i_m_Spin_multiplicity> (1)
1

>  <s_j_Task> (1)
Single Point

>  <s_j_QM_Method> (1)
DFT(b3lyp-d3)

>  <s_j_QM_Basis> (1)
cc-pvtz(-f)

>  <i_j_Number_of_canonical_orbitals> (1)
205

>  <i_j_Geometry_convergence_category> (1)
0

>  <r_j_Gas_Phase_Energy> (1)
-233.775285039206

>  <r_j_Final_Energy> (1)
-233.775285039206

>  <r_j_HOMO> (1)
-0.273676763220393

>  <r_j_LUMO> (1)
0.0155600218505072

>  <r_j_Polarizability> (1)
55.054330025898

>  <r_j_QM_Dipole_(debye)> (1)
1.49079021801544

>  <r_j_QM_Dipole_X_(debye)> (1)
-0.877457130138797

>  <r_j_QM_Dipole_Y_(debye)> (1)
-1.20520715730276

>  <r_j_QM_Dipole_Z_(debye)> (1)
0.000408515994750278

>  <r_j_Lowest_Frequency_(cm-1)> (1)
281.154806862252

>  <r_j_Highest_Frequency_(cm-1)> (1)
3746.13041765564

>  <r_j_2nd_Lowest_Frequency_(cm-1)> (1)
323.900562661418

>  <i_j_Num_Negative_Frequencies> (1)
0

>  <r_j_Zero_Point_Energy_(kcal/mol)> (1)
85.0053982107815

>  <r_j_Entropy_(cal/mol/K)_298.15K_1.00E+00atm> (1)
75.2361682257088

>  <r_j_Enthalpy_(kcal/mol)_298.15K_1.00E+00atm> (1)
4.54374489390001

>  <r_j_Free_Energy_(kcal/mol)_298.15K_1.00E+00atm> (1)
-17.8879186625951

>  <r_j_Internal_Energy_(kcal/mol)_298.15K_1.00E+00atm> (1)
3.95125930507274

>  <r_j_Heat_Capacity_(cal/mol/K)_298.15K_1.00E+00atm> (1)
24.1504348397434

>  <r_j_ln(Q)_298.15K_1.00E+00atm> (1)
30.1913143541621

>  <r_j_Total_Internal_Energy_(au)_298.15K_1.00E+00atm> (1)
-233.633523580983

>  <r_j_Total_Enthalpy_(au)_298.15K_1.00E+00atm> (1)
-233.632579395091

>  <r_j_Total_Free_Energy_(au)_298.15K_1.00E+00atm> (1)
-233.668326526615

>  <r_lp_tautomer_probability> (1)
1

>  <r_epik_Ionization_Penalty> (1)
  0.0000

>  <r_epik_Ionization_Penalty_Charging> (1)
  0.0000

>  <r_epik_Ionization_Penalty_Neutral> (1)
  0.0000

>  <r_epik_State_Penalty> (1)
  0.0000

>  <r_epik_Charging_Adjusted_Penalty> (1)
0

>  <i_epik_Tot_Q> (1)
0

>  <i_epik_Tot_abs_Q> (1)
0

>  <s_lp_Force_Field> (1)
S-OPLS

>  <r_lp_Energy> (1)
-2.901961

>  <b_lp_Chiralities_Consistent> (1)
1

$$$$
