6403_2,2-dimethylbutane
                    3D
 Schrodinger Suite 2021-3.
 20 19  0  0  1  0            999 V2000
   -0.0809    0.1857    0.0013 C   0  0  0  0  0  0
    1.4434    0.0209   -0.0007 C   0  0  0  0  0  0
    1.9844   -1.4323   -0.0003 C   0  0  0  0  0  0
    1.5169   -2.1891    1.2569 C   0  0  0  0  0  0
    3.5242   -1.3679    0.0005 C   0  0  0  0  0  0
    1.5183   -2.1896   -1.2578 C   0  0  0  0  0  0
   -0.3502    1.2470    0.0015 H   0  0  0  0  0  0
   -0.5392   -0.2672    0.8861 H   0  0  0  0  0  0
   -0.5415   -0.2674   -0.8822 H   0  0  0  0  0  0
    1.8546    0.5378   -0.8787 H   0  0  0  0  0  0
    1.8568    0.5388    0.8757 H   0  0  0  0  0  0
    1.9590   -3.1912    1.2921 H   0  0  0  0  0  0
    0.4292   -2.3099    1.2781 H   0  0  0  0  0  0
    1.8153   -1.6598    2.1692 H   0  0  0  0  0  0
    3.8971   -0.8403    0.8859 H   0  0  0  0  0  0
    3.8980   -0.8413   -0.8852 H   0  0  0  0  0  0
    3.9609   -2.3731    0.0013 H   0  0  0  0  0  0
    1.9613   -3.1913   -1.2925 H   0  0  0  0  0  0
    1.8168   -1.6601   -2.1699 H   0  0  0  0  0  0
    0.4308   -2.3114   -1.2796 H   0  0  0  0  0  0
  1  2  1  0  0  0
  1  7  1  0  0  0
  1  8  1  0  0  0
  1  9  1  0  0  0
  2  3  1  0  0  0
  2 10  1  0  0  0
  2 11  1  0  0  0
  3  4  1  0  0  0
  3  5  1  0  0  0
  3  6  1  0  0  0
  4 12  1  0  0  0
  4 13  1  0  0  0
  4 14  1  0  0  0
  5 15  1  0  0  0
  5 16  1  0  0  0
  5 17  1  0  0  0
  6 18  1  0  0  0
  6 19  1  0  0  0
  6 20  1  0  0  0
M  END
>  <i_m_Spin_multiplicity> (1)
1

>  <s_j_Task> (1)
Single Point

>  <s_j_QM_Method> (1)
DFT(b3lyp-d3)

>  <s_j_QM_Basis> (1)
cc-pvtz(-f)

>  <i_j_Number_of_canonical_orbitals> (1)
264

>  <i_j_Geometry_convergence_category> (1)
0

>  <r_j_Gas_Phase_Energy> (1)
-237.183896685217

>  <r_j_Final_Energy> (1)
-237.183896685217

>  <r_j_HOMO> (1)
-0.316780021111059

>  <r_j_LUMO> (1)
0.0183953308298059

>  <r_j_Polarizability> (1)
74.8708196056114

>  <r_j_QM_Dipole_(debye)> (1)
0.0525389612220622

>  <r_j_QM_Dipole_X_(debye)> (1)
-0.0141430004565847

>  <r_j_QM_Dipole_Y_(debye)> (1)
0.0505990608876963

>  <r_j_QM_Dipole_Z_(debye)> (1)
-0.000230264329848347

>  <r_j_Lowest_Frequency_(cm-1)> (1)
141.308654965098

>  <r_j_Highest_Frequency_(cm-1)> (1)
3058.08268790488

>  <r_j_2nd_Lowest_Frequency_(cm-1)> (1)
274.406667879749

>  <i_j_Num_Negative_Frequencies> (1)
0

>  <r_j_Zero_Point_Energy_(kcal/mol)> (1)
117.884121762516

>  <r_j_Entropy_(cal/mol/K)_298.15K_1.00E+00atm> (1)
81.9827693984974

>  <r_j_Enthalpy_(kcal/mol)_298.15K_1.00E+00atm> (1)
5.38677641894619

>  <r_j_Free_Energy_(kcal/mol)_298.15K_1.00E+00atm> (1)
-19.0563862772158

>  <r_j_Internal_Energy_(kcal/mol)_298.15K_1.00E+00atm> (1)
4.79429083011892

>  <r_j_Heat_Capacity_(cal/mol/K)_298.15K_1.00E+00atm> (1)
29.8876504724069

>  <r_j_ln(Q)_298.15K_1.00E+00atm> (1)
32.1634595618346

>  <r_j_Total_Internal_Energy_(au)_298.15K_1.00E+00atm> (1)
-236.988396189276

>  <r_j_Total_Enthalpy_(au)_298.15K_1.00E+00atm> (1)
-236.987452003384

>  <r_j_Total_Free_Energy_(au)_298.15K_1.00E+00atm> (1)
-237.026404662849

>  <r_lp_tautomer_probability> (1)
1

>  <r_epik_Ionization_Penalty> (1)
  0.0000

>  <r_epik_Ionization_Penalty_Charging> (1)
  0.0000

>  <r_epik_Ionization_Penalty_Neutral> (1)
  0.0000

>  <r_epik_State_Penalty> (1)
  0.0000

>  <r_epik_Charging_Adjusted_Penalty> (1)
0

>  <i_epik_Tot_Q> (1)
0

>  <i_epik_Tot_abs_Q> (1)
0

>  <s_lp_Force_Field> (1)
S-OPLS

>  <r_lp_Energy> (1)
3.98961

>  <b_lp_Chiralities_Consistent> (1)
1

$$$$
