6405_Pentyl alcohol, tert-
                    3D
 Schrodinger Suite 2021-3.
 18 17  0  0  1  0            999 V2000
   -0.6038    1.4441    0.0202 C   0  0  0  0  0  0
    0.0011    0.0375   -0.0081 C   0  0  0  0  0  0
    1.5406   -0.0049   -0.0372 C   0  0  0  0  0  0
    2.0234   -1.4622    0.0005 C   0  0  0  0  0  0
    2.1181    0.7167   -1.2641 C   0  0  0  0  0  0
    1.9589    0.6680    1.1633 O   0  0  0  0  0  0
   -1.6878    1.3950    0.1643 H   0  0  0  0  0  0
   -0.4221    1.9865   -0.9133 H   0  0  0  0  0  0
   -0.1728    2.0246    0.8398 H   0  0  0  0  0  0
   -0.3194   -0.5103    0.8862 H   0  0  0  0  0  0
   -0.3755   -0.5214   -0.8738 H   0  0  0  0  0  0
    1.6866   -2.0184   -0.8809 H   0  0  0  0  0  0
    1.6440   -1.9621    0.8963 H   0  0  0  0  0  0
    3.1191   -1.5057    0.0232 H   0  0  0  0  0  0
    1.7471    0.2774   -2.1962 H   0  0  0  0  0  0
    3.2122    0.6389   -1.2730 H   0  0  0  0  0  0
    1.8568    1.7771   -1.2479 H   0  0  0  0  0  0
    2.9253    0.6791    1.1706 H   0  0  0  0  0  0
  1  2  1  0  0  0
  1  7  1  0  0  0
  1  8  1  0  0  0
  1  9  1  0  0  0
  2  3  1  0  0  0
  2 10  1  0  0  0
  2 11  1  0  0  0
  3  4  1  0  0  0
  3  5  1  0  0  0
  3  6  1  0  0  0
  4 12  1  0  0  0
  4 13  1  0  0  0
  4 14  1  0  0  0
  5 15  1  0  0  0
  5 16  1  0  0  0
  5 17  1  0  0  0
  6 18  1  0  0  0
M  END
>  <i_m_Spin_multiplicity> (1)
1

>  <s_j_Task> (1)
Single Point

>  <s_j_QM_Method> (1)
DFT(b3lyp-d3)

>  <s_j_QM_Basis> (1)
cc-pvtz(-f)

>  <i_j_Number_of_canonical_orbitals> (1)
245

>  <i_j_Geometry_convergence_category> (1)
3

>  <r_j_Gas_Phase_Energy> (1)
-273.103694981022

>  <r_j_Final_Energy> (1)
-273.103694981022

>  <r_j_HOMO> (1)
-0.272507613644739

>  <r_j_LUMO> (1)
0.0209069716817317

>  <r_j_Polarizability> (1)
66.4447575341031

>  <r_j_QM_Dipole_(debye)> (1)
1.44114248324982

>  <r_j_QM_Dipole_X_(debye)> (1)
0.862261394707537

>  <r_j_QM_Dipole_Y_(debye)> (1)
-0.572686685700328

>  <r_j_QM_Dipole_Z_(debye)> (1)
-1.00270978066739

>  <r_j_Lowest_Frequency_(cm-1)> (1)
148.200087000135

>  <r_j_Highest_Frequency_(cm-1)> (1)
3754.01599165294

>  <r_j_2nd_Lowest_Frequency_(cm-1)> (1)
261.753448900248

>  <i_j_Num_Negative_Frequencies> (1)
0

>  <r_j_Zero_Point_Energy_(kcal/mol)> (1)
102.983799368717

>  <r_j_Entropy_(cal/mol/K)_298.15K_1.00E+00atm> (1)
81.4566955472928

>  <r_j_Enthalpy_(kcal/mol)_298.15K_1.00E+00atm> (1)
5.29649629607833

>  <r_j_Free_Energy_(kcal/mol)_298.15K_1.00E+00atm> (1)
-18.989817481347

>  <r_j_Internal_Energy_(kcal/mol)_298.15K_1.00E+00atm> (1)
4.70401070725105

>  <r_j_Heat_Capacity_(cal/mol/K)_298.15K_1.00E+00atm> (1)
28.9482442852932

>  <r_j_ln(Q)_298.15K_1.00E+00atm> (1)
32.0511044309688

>  <r_j_Total_Internal_Energy_(au)_298.15K_1.00E+00atm> (1)
-272.932083530958

>  <r_j_Total_Enthalpy_(au)_298.15K_1.00E+00atm> (1)
-272.931139345065

>  <r_j_Total_Free_Energy_(au)_298.15K_1.00E+00atm> (1)
-272.969842049867

>  <r_lp_tautomer_probability> (1)
1

>  <r_epik_Ionization_Penalty> (1)
  0.0000

>  <r_epik_Ionization_Penalty_Charging> (1)
  0.0000

>  <r_epik_Ionization_Penalty_Neutral> (1)
  0.0000

>  <r_epik_State_Penalty> (1)
  0.0000

>  <r_epik_Charging_Adjusted_Penalty> (1)
0

>  <i_epik_Tot_Q> (1)
0

>  <i_epik_Tot_abs_Q> (1)
0

>  <s_lp_Force_Field> (1)
S-OPLS

>  <r_lp_Energy> (1)
1.296221

>  <b_lp_Chiralities_Consistent> (1)
1

$$$$
