64150_Tricyclodecane
                    3D
 Schrodinger Suite 2021-3.
 29 31  0  0  1  0            999 V2000
   -2.5736    0.7296    1.2634 C   0  0  0  0  0  0
   -2.0679   -0.7285    1.2622 C   0  0  0  0  0  0
   -2.5732   -1.4585    0.0000 C   0  0  0  0  0  0
   -2.0674   -0.7285   -1.2621 C   0  0  0  0  0  0
   -2.5726    0.7297   -1.2637 C   0  0  0  0  0  0
   -2.0679    1.4573    0.0001 C   0  0  0  0  0  0
   -0.5192    1.4594    0.0004 C   0  0  0  0  0  0
   -0.0450   -0.0004    0.0003 C   0  0  0  0  0  0
   -0.5187   -0.7300    1.2650 C   0  0  0  0  0  0
   -0.5184   -0.7305   -1.2639 C   0  0  0  0  0  0
    1.5029    0.0003   -0.0012 N   0  3  1  0  0  0
   -2.2342    1.2513    2.1665 H   0  0  0  0  0  0
   -3.6683    0.7408    1.2827 H   0  0  0  0  0  0
   -2.4149   -1.2474    2.1610 H   0  0  0  0  0  0
   -2.2340   -2.5015    0.0000 H   0  0  0  0  0  0
   -3.6680   -1.4807   -0.0003 H   0  0  0  0  0  0
   -2.4139   -1.2474   -2.1611 H   0  0  0  0  0  0
   -2.2320    1.2513   -2.1664 H   0  0  0  0  0  0
   -3.6673    0.7413   -1.2843 H   0  0  0  0  0  0
   -2.4141    2.4954   -0.0001 H   0  0  0  0  0  0
   -0.1407    1.9834   -0.8872 H   0  0  0  0  0  0
   -0.1409    1.9830    0.8883 H   0  0  0  0  0  0
   -0.1409   -0.2225    2.1624 H   0  0  0  0  0  0
   -0.1406   -1.7608    1.2750 H   0  0  0  0  0  0
   -0.1405   -1.7614   -1.2730 H   0  0  0  0  0  0
   -0.1397   -0.2238   -2.1613 H   0  0  0  0  0  0
    1.8703   -0.9575   -0.0002 H   0  0  0  0  0  0
    1.8703    0.4808    0.8273 H   0  0  0  0  0  0
    1.8688    0.4783   -0.8320 H   0  0  0  0  0  0
  1  6  1  0  0  0
  1  2  1  0  0  0
  1 12  1  0  0  0
  1 13  1  0  0  0
  2  9  1  0  0  0
  2  3  1  0  0  0
  2 14  1  0  0  0
  3  4  1  0  0  0
  3 15  1  0  0  0
  3 16  1  0  0  0
  4 10  1  0  0  0
  4  5  1  0  0  0
  4 17  1  0  0  0
  5  6  1  0  0  0
  5 18  1  0  0  0
  5 19  1  0  0  0
  6  7  1  0  0  0
  6 20  1  0  0  0
  7  8  1  0  0  0
  7 21  1  0  0  0
  7 22  1  0  0  0
  8  9  1  0  0  0
  8 10  1  0  0  0
  8 11  1  0  0  0
  9 23  1  0  0  0
  9 24  1  0  0  0
 10 25  1  0  0  0
 10 26  1  0  0  0
 11 27  1  0  0  0
 11 28  1  0  0  0
 11 29  1  0  0  0
M  END
>  <i_m_Spin_multiplicity> (1)
1

>  <s_j_Task> (1)
Single Point

>  <s_j_QM_Method> (1)
DFT(b3lyp-d3)

>  <s_j_QM_Basis> (1)
cc-pvtz(-f)

>  <i_j_Number_of_canonical_orbitals> (1)
408

>  <i_j_Geometry_convergence_category> (1)
3

>  <r_j_Gas_Phase_Energy> (1)
-446.626409546129

>  <r_j_Final_Energy> (1)
-446.626409546129

>  <r_j_HOMO> (1)
-0.425912040950128

>  <r_j_LUMO> (1)
-0.17018276954378

>  <r_j_Polarizability> (1)
109.226307364538

>  <r_j_QM_Dipole_(debye)> (1)
7.89772277717382

>  <r_j_QM_Dipole_X_(debye)> (1)
7.89772196986078

>  <r_j_QM_Dipole_Y_(debye)> (1)
0.000987946080235904

>  <r_j_QM_Dipole_Z_(debye)> (1)
-0.00343159307341376

>  <r_j_Lowest_Frequency_(cm-1)> (1)
268.171019294445

>  <r_j_Highest_Frequency_(cm-1)> (1)
3432.69573414247

>  <r_j_2nd_Lowest_Frequency_(cm-1)> (1)
268.300442266991

>  <i_j_Num_Negative_Frequencies> (1)
0

>  <r_j_Zero_Point_Energy_(kcal/mol)> (1)
171.989039198747

>  <r_j_Entropy_(cal/mol/K)_298.15K_1.00E+00atm> (1)
86.9004138929612

>  <r_j_Enthalpy_(kcal/mol)_298.15K_1.00E+00atm> (1)
5.78707728330406

>  <r_j_Free_Energy_(kcal/mol)_298.15K_1.00E+00atm> (1)
-20.1222811188823

>  <r_j_Internal_Energy_(kcal/mol)_298.15K_1.00E+00atm> (1)
5.19459169447678

>  <r_j_Heat_Capacity_(cal/mol/K)_298.15K_1.00E+00atm> (1)
38.3880614869281

>  <r_j_ln(Q)_298.15K_1.00E+00atm> (1)
33.9624819545586

>  <r_j_Total_Internal_Energy_(au)_298.15K_1.00E+00atm> (1)
-446.344049455383

>  <r_j_Total_Enthalpy_(au)_298.15K_1.00E+00atm> (1)
-446.343105269491

>  <r_j_Total_Free_Energy_(au)_298.15K_1.00E+00atm> (1)
-446.384394460556

>  <r_lp_tautomer_probability> (1)
1

>  <r_epik_Ionization_Penalty> (1)
  0.0001

>  <r_epik_Ionization_Penalty_Charging> (1)
  0.0001

>  <r_epik_Ionization_Penalty_Neutral> (1)
  0.0000

>  <r_epik_State_Penalty> (1)
  0.0000

>  <r_epik_Charging_Adjusted_Penalty> (1)
7.35582341910701e-05

>  <i_epik_Tot_Q> (1)
1

>  <i_epik_Tot_abs_Q> (1)
1

>  <s_lp_Force_Field> (1)
S-OPLS

>  <r_lp_Energy> (1)
6.33227

>  <b_lp_Chiralities_Consistent> (1)
1

$$$$
