6428_Trichlorotrifluoroethane-F113
                    3D
 Schrodinger Suite 2021-3.
  8  7  0  0  1  0            999 V2000
   -0.0304    0.0162    0.0142 C   0  0  0  0  0  0
    1.5376    0.0060    0.0272 C   0  0  0  0  0  0
    1.9609    0.6512   -1.0733 F   0  0  0  0  0  0
    2.1825    0.8179    1.4793 Cl  0  0  0  0  0  0
    2.1081   -1.6919   -0.0467 Cl  0  0  0  0  0  0
   -0.4445   -0.6485   -1.0742 F   0  0  0  0  0  0
   -0.4972   -0.6011    1.1051 F   0  0  0  0  0  0
   -0.6771    1.6834   -0.0557 Cl  0  0  0  0  0  0
  1  2  1  0  0  0
  1  6  1  0  0  0
  1  7  1  0  0  0
  1  8  1  0  0  0
  2  3  1  0  0  0
  2  4  1  0  0  0
  2  5  1  0  0  0
M  END
>  <i_m_Spin_multiplicity> (1)
1

>  <s_j_Task> (1)
Single Point

>  <s_j_QM_Method> (1)
DFT(b3lyp-d3)

>  <s_j_QM_Basis> (1)
cc-pvtz(-f)

>  <i_j_Number_of_canonical_orbitals> (1)
196

>  <i_j_Geometry_convergence_category> (1)
0

>  <r_j_Gas_Phase_Energy> (1)
-1756.55400907113

>  <r_j_Final_Energy> (1)
-1756.55400907113

>  <r_j_HOMO> (1)
-0.334280878645836

>  <r_j_LUMO> (1)
-0.0546501591724341

>  <r_j_Polarizability> (1)
60.7359086674043

>  <r_j_QM_Dipole_(debye)> (1)
0.388450159828388

>  <r_j_QM_Dipole_X_(debye)> (1)
0.192136126811598

>  <r_j_QM_Dipole_Y_(debye)> (1)
0.136543965117826

>  <r_j_QM_Dipole_Z_(debye)> (1)
0.308760394212794

>  <r_j_Lowest_Frequency_(cm-1)> (1)
73.6407066761411

>  <r_j_Highest_Frequency_(cm-1)> (1)
1190.96617950848

>  <r_j_2nd_Lowest_Frequency_(cm-1)> (1)
164.51988067722

>  <i_j_Num_Negative_Frequencies> (1)
0

>  <r_j_Zero_Point_Energy_(kcal/mol)> (1)
14.5621686488756

>  <r_j_Entropy_(cal/mol/K)_298.15K_1.00E+00atm> (1)
89.5980620113553

>  <r_j_Enthalpy_(kcal/mol)_298.15K_1.00E+00atm> (1)
5.5668137606832

>  <r_j_Free_Energy_(kcal/mol)_298.15K_1.00E+00atm> (1)
-21.1468484280024

>  <r_j_Internal_Energy_(kcal/mol)_298.15K_1.00E+00atm> (1)
4.97432817185592

>  <r_j_Heat_Capacity_(cal/mol/K)_298.15K_1.00E+00atm> (1)
27.1034107062104

>  <r_j_ln(Q)_298.15K_1.00E+00atm> (1)
35.6917515409261

>  <r_j_Total_Internal_Energy_(au)_298.15K_1.00E+00atm> (1)
-1756.52287568151

>  <r_j_Total_Enthalpy_(au)_298.15K_1.00E+00atm> (1)
-1756.52193149561

>  <r_j_Total_Free_Energy_(au)_298.15K_1.00E+00atm> (1)
-1756.56450242636

>  <r_lp_tautomer_probability> (1)
1

>  <r_epik_Ionization_Penalty> (1)
  0.0000

>  <r_epik_Ionization_Penalty_Charging> (1)
  0.0000

>  <r_epik_Ionization_Penalty_Neutral> (1)
  0.0000

>  <r_epik_State_Penalty> (1)
  0.0000

>  <r_epik_Charging_Adjusted_Penalty> (1)
0

>  <i_epik_Tot_Q> (1)
0

>  <i_epik_Tot_abs_Q> (1)
0

>  <s_lp_Force_Field> (1)
S-OPLS

>  <r_lp_Energy> (1)
-7.603446

>  <b_lp_Chiralities_Consistent> (1)
1

$$$$
