6431006_Pinene
                    3D
 Schrodinger Suite 2021-3.
 26 27  0  0  1  0            999 V2000
   -0.0186   -0.0197    0.0382 C   0  0  0  0  0  0
    1.5173    0.0146   -0.0055 C   0  0  0  0  0  0
   -0.4376   -1.0025    1.1330 C   0  0  0  0  0  0
   -0.6504   -0.1533   -1.3964 C   0  0  0  0  0  0
   -2.1540   -0.5167   -1.3248 C   0  0  0  0  0  0
   -2.8185   -0.5141   -2.7112 C   0  0  0  0  0  0
   -2.8503    0.4280   -0.3612 C   0  0  0  0  0  0
   -2.1361    1.3466    0.2986 C   0  0  0  0  0  0
   -0.6494    1.4305    0.0178 C   0  0  0  0  0  0
   -0.4924    1.3895   -1.5341 C   0  0  0  0  0  0
    1.9121   -0.9870   -0.2122 H   0  0  0  0  0  0
    1.9174    0.3348    0.9636 H   0  0  0  0  0  0
    1.9181    0.6890   -0.7658 H   0  0  0  0  0  0
   -0.0851   -2.0122    0.8907 H   0  0  0  0  0  0
   -1.5175   -1.0440    1.2782 H   0  0  0  0  0  0
    0.0146   -0.7187    2.0906 H   0  0  0  0  0  0
   -0.1266   -0.7951   -2.1151 H   0  0  0  0  0  0
   -2.2414   -1.5395   -0.9247 H   0  0  0  0  0  0
   -3.8818   -0.7669   -2.6366 H   0  0  0  0  0  0
   -2.3433   -1.2458   -3.3735 H   0  0  0  0  0  0
   -2.7438    0.4704   -3.1839 H   0  0  0  0  0  0
   -3.9246    0.3236   -0.2227 H   0  0  0  0  0  0
   -2.5941    2.0273    1.0117 H   0  0  0  0  0  0
   -0.1430    2.2168    0.5857 H   0  0  0  0  0  0
    0.4982    1.6844   -1.8834 H   0  0  0  0  0  0
   -1.2480    1.9305   -2.1090 H   0  0  0  0  0  0
  1  9  1  0  0  0
  1  2  1  0  0  0
  1  3  1  0  0  0
  1  4  1  0  0  0
  2 11  1  0  0  0
  2 12  1  0  0  0
  2 13  1  0  0  0
  3 14  1  0  0  0
  3 15  1  0  0  0
  3 16  1  0  0  0
  4 10  1  0  0  0
  4  5  1  0  0  0
  4 17  1  0  0  0
  5  6  1  0  0  0
  5  7  1  0  0  0
  5 18  1  0  0  0
  6 19  1  0  0  0
  6 20  1  0  0  0
  6 21  1  0  0  0
  7  8  2  0  0  0
  7 22  1  0  0  0
  8  9  1  0  0  0
  8 23  1  0  0  0
  9 10  1  0  0  0
  9 24  1  0  0  0
 10 25  1  0  0  0
 10 26  1  0  0  0
M  END
>  <i_m_Spin_multiplicity> (1)
1

>  <s_j_Task> (1)
Single Point

>  <s_j_QM_Method> (1)
DFT(b3lyp-d3)

>  <s_j_QM_Basis> (1)
cc-pvtz(-f)

>  <i_j_Number_of_canonical_orbitals> (1)
369

>  <i_j_Geometry_convergence_category> (1)
0

>  <r_j_Gas_Phase_Energy> (1)
-390.802872749409

>  <r_j_Final_Energy> (1)
-390.802872749409

>  <r_j_HOMO> (1)
-0.232855926371342

>  <r_j_LUMO> (1)
0.00802286411477953

>  <r_j_Polarizability> (1)
110.320482018752

>  <r_j_QM_Dipole_(debye)> (1)
0.210496756713268

>  <r_j_QM_Dipole_X_(debye)> (1)
0.141452812499373

>  <r_j_QM_Dipole_Y_(debye)> (1)
-0.139230408458299

>  <r_j_QM_Dipole_Z_(debye)> (1)
-0.0701062036010882

>  <r_j_Lowest_Frequency_(cm-1)> (1)
175.445276867258

>  <r_j_Highest_Frequency_(cm-1)> (1)
3126.50783972295

>  <r_j_2nd_Lowest_Frequency_(cm-1)> (1)
206.416767394543

>  <i_j_Num_Negative_Frequencies> (1)
0

>  <r_j_Zero_Point_Energy_(kcal/mol)> (1)
147.572793311849

>  <r_j_Entropy_(cal/mol/K)_298.15K_1.00E+00atm> (1)
90.4974545714937

>  <r_j_Enthalpy_(kcal/mol)_298.15K_1.00E+00atm> (1)
6.3812574800476

>  <r_j_Free_Energy_(kcal/mol)_298.15K_1.00E+00atm> (1)
-20.6005586004432

>  <r_j_Internal_Energy_(kcal/mol)_298.15K_1.00E+00atm> (1)
5.78877189122032

>  <r_j_Heat_Capacity_(cal/mol/K)_298.15K_1.00E+00atm> (1)
39.3647629424237

>  <r_j_ln(Q)_298.15K_1.00E+00atm> (1)
34.769720966916

>  <r_j_Total_Internal_Energy_(au)_298.15K_1.00E+00atm> (1)
-390.55847553704

>  <r_j_Total_Enthalpy_(au)_298.15K_1.00E+00atm> (1)
-390.557531351148

>  <r_j_Total_Free_Energy_(au)_298.15K_1.00E+00atm> (1)
-390.600529612322

>  <r_lp_tautomer_probability> (1)
1

>  <r_epik_Ionization_Penalty> (1)
  0.0000

>  <r_epik_Ionization_Penalty_Charging> (1)
  0.0000

>  <r_epik_Ionization_Penalty_Neutral> (1)
  0.0000

>  <r_epik_State_Penalty> (1)
  0.0000

>  <r_epik_Charging_Adjusted_Penalty> (1)
0

>  <i_epik_Tot_Q> (1)
0

>  <i_epik_Tot_abs_Q> (1)
0

>  <s_lp_Force_Field> (1)
S-OPLS

>  <r_lp_Energy> (1)
27.3429

>  <b_lp_Chiralities_Consistent> (1)
1

$$$$
