6431285_1,3-dimethyldibenzothiophene
                    3D
 Schrodinger Suite 2021-3.
 27 29  0  0  1  0            999 V2000
   -0.0132   -0.1023    0.0000 C   0  0  0  0  0  0
    1.4949   -0.0209    0.0000 C   0  0  0  0  0  0
    2.1572    1.2115    0.0000 C   0  0  0  0  0  0
    3.5501    1.3438    0.0000 C   0  0  0  0  0  0
    4.3388    0.1694   -0.0001 C   0  0  0  0  0  0
    5.7949   -0.0366   -0.0001 C   0  0  0  0  0  0
    6.8632    0.8800   -0.0003 C   0  0  0  0  0  0
    8.1824    0.4411   -0.0003 C   0  0  0  0  0  0
    8.4852   -0.9254    0.0000 C   0  0  0  0  0  0
    7.4584   -1.8623    0.0002 C   0  0  0  0  0  0
    6.1370   -1.4134    0.0001 C   0  0  0  0  0  0
    4.7295   -2.4718    0.0001 S   0  0  0  0  0  0
    3.6505   -1.0757    0.0000 C   0  0  0  0  0  0
    2.2650   -1.1840    0.0000 C   0  0  0  0  0  0
    4.0796    2.7634    0.0003 C   0  0  0  0  0  0
   -0.4697    0.8912    0.0000 H   0  0  0  0  0  0
   -0.3800   -0.6405    0.8815 H   0  0  0  0  0  0
   -0.3800   -0.6404   -0.8816 H   0  0  0  0  0  0
    1.5604    2.1213    0.0001 H   0  0  0  0  0  0
    6.6812    1.9444   -0.0006 H   0  0  0  0  0  0
    8.9853    1.1722   -0.0005 H   0  0  0  0  0  0
    9.5194   -1.2562    0.0001 H   0  0  0  0  0  0
    7.6766   -2.9256    0.0004 H   0  0  0  0  0  0
    1.7890   -2.1606    0.0000 H   0  0  0  0  0  0
    5.1615    2.8395    0.0014 H   0  0  0  0  0  0
    3.7134    3.3028    0.8809 H   0  0  0  0  0  0
    3.7152    3.3025   -0.8813 H   0  0  0  0  0  0
  1  2  1  0  0  0
  1 16  1  0  0  0
  1 17  1  0  0  0
  1 18  1  0  0  0
  2 14  1  0  0  0
  2  3  2  0  0  0
  3  4  1  0  0  0
  3 19  1  0  0  0
  4  5  2  0  0  0
  4 15  1  0  0  0
  5 13  1  0  0  0
  5  6  1  0  0  0
  6 11  1  0  0  0
  6  7  2  0  0  0
  7  8  1  0  0  0
  7 20  1  0  0  0
  8  9  2  0  0  0
  8 21  1  0  0  0
  9 10  1  0  0  0
  9 22  1  0  0  0
 10 11  2  0  0  0
 10 23  1  0  0  0
 11 12  1  0  0  0
 12 13  1  0  0  0
 13 14  2  0  0  0
 14 24  1  0  0  0
 15 25  1  0  0  0
 15 26  1  0  0  0
 15 27  1  0  0  0
M  END
>  <i_m_Spin_multiplicity> (1)
1

>  <s_j_Task> (1)
Single Point

>  <s_j_QM_Method> (1)
DFT(b3lyp-d3)

>  <s_j_QM_Basis> (1)
cc-pvtz(-f)

>  <i_j_Number_of_canonical_orbitals> (1)
446

>  <i_j_Geometry_convergence_category> (1)
0

>  <r_j_Gas_Phase_Energy> (1)
-939.151490070079

>  <r_j_Final_Energy> (1)
-939.151490070079

>  <r_j_HOMO> (1)
-0.216634058916339

>  <r_j_LUMO> (1)
-0.0433991275572934

>  <r_j_Polarizability> (1)
183.719748507347

>  <r_j_QM_Dipole_(debye)> (1)
1.20390047008637

>  <r_j_QM_Dipole_X_(debye)> (1)
-0.466956085009058

>  <r_j_QM_Dipole_Y_(debye)> (1)
1.10965235422673

>  <r_j_QM_Dipole_Z_(debye)> (1)
9.64690415082883e-05

>  <r_j_Lowest_Frequency_(cm-1)> (1)
-134.897723268785

>  <r_j_Highest_Frequency_(cm-1)> (1)
3206.79136448068

>  <r_j_2nd_Lowest_Frequency_(cm-1)> (1)
74.4173135538446

>  <i_j_Num_Negative_Frequencies> (1)
1

>  <r_j_Zero_Point_Energy_(kcal/mol)> (1)
135.00085720243

>  <r_j_Entropy_(cal/mol/K)_298.15K_1.00E+00atm> (1)
104.512707607081

>  <r_j_Enthalpy_(kcal/mol)_298.15K_1.00E+00atm> (1)
7.86085503159518

>  <r_j_Free_Energy_(kcal/mol)_298.15K_1.00E+00atm> (1)
-23.2996087414561

>  <r_j_Internal_Energy_(kcal/mol)_298.15K_1.00E+00atm> (1)
7.26836944276791

>  <r_j_Heat_Capacity_(cal/mol/K)_298.15K_1.00E+00atm> (1)
47.9168483459781

>  <r_j_ln(Q)_298.15K_1.00E+00atm> (1)
39.3251906558163

>  <r_j_Total_Internal_Energy_(au)_298.15K_1.00E+00atm> (1)
-938.924769624498

>  <r_j_Total_Enthalpy_(au)_298.15K_1.00E+00atm> (1)
-938.923825438605

>  <r_j_Total_Free_Energy_(au)_298.15K_1.00E+00atm> (1)
-938.973482798793

>  <r_lp_tautomer_probability> (1)
1

>  <r_epik_Ionization_Penalty> (1)
  0.0000

>  <r_epik_Ionization_Penalty_Charging> (1)
  0.0000

>  <r_epik_Ionization_Penalty_Neutral> (1)
  0.0000

>  <r_epik_State_Penalty> (1)
  0.0000

>  <r_epik_Charging_Adjusted_Penalty> (1)
0

>  <i_epik_Tot_Q> (1)
0

>  <i_epik_Tot_abs_Q> (1)
0

>  <s_lp_Force_Field> (1)
S-OPLS

>  <r_lp_Energy> (1)
25.719

>  <b_lp_Chiralities_Consistent> (1)
1

$$$$
