64813_3-(4-Methoxyphenyl)-2-Methylpropanal
                    3D
 Schrodinger Suite 2021-3.
 27 27  0  0  1  0            999 V2000
   -0.4995   -0.9094    1.2962 C   0  0  0  0  0  0
   -0.0427   -0.0719    0.1026 C   0  0  0  0  0  0
    1.4993    0.1443    0.0893 C   0  0  0  0  0  0
    2.0172    0.8403   -1.1509 C   0  0  0  0  0  0
    2.0430    0.1691   -2.3845 C   0  0  0  0  0  0
    2.4759    0.7986   -3.5422 C   0  0  0  0  0  0
    2.9012    2.1344   -3.4985 C   0  0  0  0  0  0
    2.8907    2.8207   -2.2802 C   0  0  0  0  0  0
    2.4503    2.1667   -1.1254 C   0  0  0  0  0  0
    3.3021    2.6634   -4.6915 O   0  0  0  0  0  0
    3.7351    4.0149   -4.7144 C   0  0  0  0  0  0
   -0.7586    1.2658    0.0515 C   0  0  0  0  0  0
   -1.5668    1.6405    0.8752 O   0  0  0  0  0  0
   -1.5839   -1.0438    1.2875 H   0  0  0  0  0  0
   -0.2430   -0.4104    2.2356 H   0  0  0  0  0  0
   -0.0224   -1.8940    1.2846 H   0  0  0  0  0  0
   -0.3015   -0.5832   -0.8385 H   0  0  0  0  0  0
    1.7827    0.7073    0.9866 H   0  0  0  0  0  0
    1.9667   -0.8435    0.1833 H   0  0  0  0  0  0
    1.7169   -0.8673   -2.4353 H   0  0  0  0  0  0
    2.4975    0.2805   -4.4952 H   0  0  0  0  0  0
    3.2173    3.8515   -2.2155 H   0  0  0  0  0  0
    2.4421    2.7131   -0.1853 H   0  0  0  0  0  0
    4.0008    4.2290   -5.7507 H   0  0  0  0  0  0
    4.6156    4.1703   -4.0769 H   0  0  0  0  0  0
    2.9389    4.7015   -4.3971 H   0  0  0  0  0  0
   -0.4863    1.9103   -0.8119 H   0  0  0  0  0  0
  1  2  1  0  0  0
  1 14  1  0  0  0
  1 15  1  0  0  0
  1 16  1  0  0  0
  2  3  1  0  0  0
  2 12  1  0  0  0
  2 17  1  0  0  0
  3  4  1  0  0  0
  3 18  1  0  0  0
  3 19  1  0  0  0
  4  9  1  0  0  0
  4  5  2  0  0  0
  5  6  1  0  0  0
  5 20  1  0  0  0
  6  7  2  0  0  0
  6 21  1  0  0  0
  7  8  1  0  0  0
  7 10  1  0  0  0
  8  9  2  0  0  0
  8 22  1  0  0  0
  9 23  1  0  0  0
 10 11  1  0  0  0
 11 24  1  0  0  0
 11 25  1  0  0  0
 11 26  1  0  0  0
 12 13  2  0  0  0
 12 27  1  0  0  0
M  END
>  <i_m_Spin_multiplicity> (1)
1

>  <s_j_Task> (1)
Single Point

>  <s_j_QM_Method> (1)
DFT(b3lyp-d3)

>  <s_j_QM_Basis> (1)
cc-pvtz(-f)

>  <i_j_Number_of_canonical_orbitals> (1)
418

>  <i_j_Geometry_convergence_category> (1)
0

>  <r_j_Gas_Phase_Energy> (1)
-578.245455074813

>  <r_j_Final_Energy> (1)
-578.245455074813

>  <r_j_HOMO> (1)
-0.203283749446318

>  <r_j_LUMO> (1)
-0.0255872221604964

>  <r_j_Polarizability> (1)
134.609768297613

>  <r_j_QM_Dipole_(debye)> (1)
2.84174237479134

>  <r_j_QM_Dipole_X_(debye)> (1)
2.39247873808715

>  <r_j_QM_Dipole_Y_(debye)> (1)
0.0644327032401576

>  <r_j_QM_Dipole_Z_(debye)> (1)
-1.53212063468868

>  <r_j_Lowest_Frequency_(cm-1)> (1)
54.7281418087505

>  <r_j_Highest_Frequency_(cm-1)> (1)
3166.14225326502

>  <r_j_2nd_Lowest_Frequency_(cm-1)> (1)
71.2933718663836

>  <i_j_Num_Negative_Frequencies> (1)
0

>  <r_j_Zero_Point_Energy_(kcal/mol)> (1)
142.038333078002

>  <r_j_Entropy_(cal/mol/K)_298.15K_1.00E+00atm> (1)
108.233083944232

>  <r_j_Enthalpy_(kcal/mol)_298.15K_1.00E+00atm> (1)
8.33101418149039

>  <r_j_Free_Energy_(kcal/mol)_298.15K_1.00E+00atm> (1)
-23.9386797964825

>  <r_j_Internal_Energy_(kcal/mol)_298.15K_1.00E+00atm> (1)
7.73852859266312

>  <r_j_Heat_Capacity_(cal/mol/K)_298.15K_1.00E+00atm> (1)
47.7113177852423

>  <r_j_ln(Q)_298.15K_1.00E+00atm> (1)
40.4038178276455

>  <r_j_Total_Internal_Energy_(au)_298.15K_1.00E+00atm> (1)
-578.006770451183

>  <r_j_Total_Enthalpy_(au)_298.15K_1.00E+00atm> (1)
-578.005826265291

>  <r_j_Total_Free_Energy_(au)_298.15K_1.00E+00atm> (1)
-578.05725129634

>  <r_lp_tautomer_probability> (1)
1

>  <r_epik_Ionization_Penalty> (1)
  0.0000

>  <r_epik_Ionization_Penalty_Charging> (1)
  0.0000

>  <r_epik_Ionization_Penalty_Neutral> (1)
  0.0000

>  <r_epik_State_Penalty> (1)
  0.0000

>  <r_epik_Charging_Adjusted_Penalty> (1)
0

>  <i_epik_Tot_Q> (1)
0

>  <i_epik_Tot_abs_Q> (1)
0

>  <s_lp_Force_Field> (1)
S-OPLS

>  <r_lp_Energy> (1)
13.7325

>  <b_lp_Chiralities_Consistent> (1)
1

$$$$
