6490_2,2,4-trimethyl-1,3-pentanediol isobutyrate
                    3D
 Schrodinger Suite 2021-3.
 39 38  0  0  1  0            999 V2000
   -0.5802   -2.1878    1.5346 C   0  0  0  0  0  0
   -0.8331   -0.6910    1.3027 C   0  0  0  0  0  0
   -2.3373   -0.4641    1.0675 C   0  0  0  0  0  0
   -0.0325   -0.0503    0.1424 C   0  0  0  0  0  0
    1.5338   -0.1761    0.1407 C   0  0  0  0  0  0
    2.1024    0.8468   -0.8706 C   0  0  0  0  0  0
    2.1129    0.1253    1.5328 C   0  0  0  0  0  0
    1.9498   -1.5764   -0.3377 C   0  0  0  0  0  0
    3.3954   -1.6219   -0.3960 O   0  0  0  0  0  0
    3.9508   -2.8422   -0.5758 C   0  0  0  0  0  0
    3.3040   -3.8588   -0.7122 O   0  0  0  0  0  0
    5.4705   -2.7514   -0.5542 C   0  0  0  0  0  0
    6.0963   -4.0669   -1.0218 C   0  0  0  0  0  0
    5.9423   -2.3529    0.8583 C   0  0  0  0  0  0
   -0.3974    1.3367    0.1977 O   0  0  0  0  0  0
   -0.7126   -2.7650    0.6118 H   0  0  0  0  0  0
   -1.3006   -2.5738    2.2631 H   0  0  0  0  0  0
    0.4160   -2.3989    1.9292 H   0  0  0  0  0  0
   -0.5490   -0.1441    2.2109 H   0  0  0  0  0  0
   -2.6757   -1.0181    0.1824 H   0  0  0  0  0  0
   -2.5581    0.5928    0.9146 H   0  0  0  0  0  0
   -2.9182   -0.8234    1.9235 H   0  0  0  0  0  0
   -0.3986   -0.4924   -0.8024 H   0  0  0  0  0  0
    3.1761    0.6953   -0.9974 H   0  0  0  0  0  0
    1.9449    1.8702   -0.5221 H   0  0  0  0  0  0
    1.6346    0.7335   -1.8580 H   0  0  0  0  0  0
    3.2043    0.1757    1.4912 H   0  0  0  0  0  0
    1.8429   -0.6431    2.2631 H   0  0  0  0  0  0
    1.7323    1.0861    1.8903 H   0  0  0  0  0  0
    1.6143   -2.3740    0.3210 H   0  0  0  0  0  0
    1.5541   -1.7858   -1.3393 H   0  0  0  0  0  0
    5.7439   -1.9413   -1.2427 H   0  0  0  0  0  0
    5.7651   -4.3287   -2.0302 H   0  0  0  0  0  0
    5.8050   -4.8858   -0.3580 H   0  0  0  0  0  0
    7.1879   -3.9886   -1.0225 H   0  0  0  0  0  0
    5.4986   -1.4043    1.1702 H   0  0  0  0  0  0
    7.0317   -2.2514    0.8783 H   0  0  0  0  0  0
    5.6619   -3.1212    1.5871 H   0  0  0  0  0  0
   -0.2203    1.7321   -0.6634 H   0  0  0  0  0  0
  1  2  1  0  0  0
  1 16  1  0  0  0
  1 17  1  0  0  0
  1 18  1  0  0  0
  2  3  1  0  0  0
  2  4  1  0  0  0
  2 19  1  0  0  0
  3 20  1  0  0  0
  3 21  1  0  0  0
  3 22  1  0  0  0
  4  5  1  0  0  0
  4 15  1  0  0  0
  4 23  1  0  0  0
  5  6  1  0  0  0
  5  7  1  0  0  0
  5  8  1  0  0  0
  6 24  1  0  0  0
  6 25  1  0  0  0
  6 26  1  0  0  0
  7 27  1  0  0  0
  7 28  1  0  0  0
  7 29  1  0  0  0
  8  9  1  0  0  0
  8 30  1  0  0  0
  8 31  1  0  0  0
  9 10  1  0  0  0
 10 11  2  0  0  0
 10 12  1  0  0  0
 12 13  1  0  0  0
 12 14  1  0  0  0
 12 32  1  0  0  0
 13 33  1  0  0  0
 13 34  1  0  0  0
 13 35  1  0  0  0
 14 36  1  0  0  0
 14 37  1  0  0  0
 14 38  1  0  0  0
 15 39  1  0  0  0
M  END
>  <i_m_Spin_multiplicity> (1)
1

>  <s_j_Task> (1)
Single Point

>  <s_j_QM_Method> (1)
DFT(b3lyp-d3)

>  <s_j_QM_Basis> (1)
cc-pvtz(-f)

>  <i_j_Number_of_canonical_orbitals> (1)
558

>  <i_j_Geometry_convergence_category> (1)
3

>  <r_j_Gas_Phase_Energy> (1)
-697.707364500987

>  <r_j_Final_Energy> (1)
-697.707364500987

>  <r_j_HOMO> (1)
-0.277646204704959

>  <r_j_LUMO> (1)
-0.0114557787119249

>  <r_j_Polarizability> (1)
154.604622432286

>  <r_j_QM_Dipole_(debye)> (1)
1.74097901985272

>  <r_j_QM_Dipole_X_(debye)> (1)
0.944853977280707

>  <r_j_QM_Dipole_Y_(debye)> (1)
1.36679513935649

>  <r_j_QM_Dipole_Z_(debye)> (1)
-0.519740277653797

>  <r_j_Lowest_Frequency_(cm-1)> (1)
52.2425439181343

>  <r_j_Highest_Frequency_(cm-1)> (1)
3792.82401413083

>  <r_j_2nd_Lowest_Frequency_(cm-1)> (1)
62.8377960448496

>  <i_j_Num_Negative_Frequencies> (1)
0

>  <r_j_Zero_Point_Energy_(kcal/mol)> (1)
219.309525754497

>  <r_j_Entropy_(cal/mol/K)_298.15K_1.00E+00atm> (1)
128.403085785347

>  <r_j_Enthalpy_(kcal/mol)_298.15K_1.00E+00atm> (1)
11.509433990133

>  <r_j_Free_Energy_(kcal/mol)_298.15K_1.00E+00atm> (1)
-26.7739460367681

>  <r_j_Internal_Energy_(kcal/mol)_298.15K_1.00E+00atm> (1)
10.9169484013057

>  <r_j_Heat_Capacity_(cal/mol/K)_298.15K_1.00E+00atm> (1)
68.3559799183484

>  <r_j_ln(Q)_298.15K_1.00E+00atm> (1)
45.1891936979643

>  <r_j_Total_Internal_Energy_(au)_298.15K_1.00E+00atm> (1)
-697.340475258414

>  <r_j_Total_Enthalpy_(au)_298.15K_1.00E+00atm> (1)
-697.339531072521

>  <r_j_Total_Free_Energy_(au)_298.15K_1.00E+00atm> (1)
-697.400539522365

>  <r_lp_tautomer_probability> (1)
1

>  <r_epik_Ionization_Penalty> (1)
  0.0000

>  <r_epik_Ionization_Penalty_Charging> (1)
  0.0000

>  <r_epik_Ionization_Penalty_Neutral> (1)
  0.0000

>  <r_epik_State_Penalty> (1)
  0.0000

>  <r_epik_Charging_Adjusted_Penalty> (1)
0

>  <i_epik_Tot_Q> (1)
0

>  <i_epik_Tot_abs_Q> (1)
0

>  <s_lp_Force_Field> (1)
S-OPLS

>  <r_lp_Energy> (1)
11.943252

>  <b_lp_Chiralities_Consistent> (1)
1

>  <s_epik_Chemistry_Notes> (1)
This compound has an ester and may undergo hydrolysis at high or low pH.

$$$$
