6506_Triethyl citrate
                    3D
 Schrodinger Suite 2021-3.
 39 38  0  0  1  0            999 V2000
   -3.3989    3.0664   -1.9509 C   0  0  0  0  0  0
   -2.1465    3.1507   -1.1020 C   0  0  0  0  0  0
   -1.6799    1.7915   -0.8945 O   0  0  0  0  0  0
   -0.5276    1.6591   -0.2334 C   0  0  0  0  0  0
    0.1063    2.6069    0.2095 O   0  0  0  0  0  0
   -0.1099    0.2133   -0.0808 C   0  0  0  0  0  0
    1.4233    0.1021    0.0477 C   0  0  0  0  0  0
    1.8817   -1.3734    0.1652 C   0  0  0  0  0  0
    1.5099   -2.1817   -1.0592 C   0  0  0  0  0  0
    0.4564   -2.7646   -1.2051 O   0  0  0  0  0  0
    2.4819   -2.1057   -1.9924 O   0  0  0  0  0  0
    2.1899   -2.6308   -3.3130 C   0  0  0  0  0  0
    2.7852   -1.6711   -4.3268 C   0  0  0  0  0  0
    2.0642    0.7075   -1.2247 C   0  0  0  0  0  0
    1.4659    0.8506   -2.2741 O   0  0  0  0  0  0
    3.3514    1.0131   -1.0394 O   0  0  0  0  0  0
    4.0518    1.5241   -2.2008 C   0  0  0  0  0  0
    5.4465    1.9053   -1.7478 C   0  0  0  0  0  0
    1.8876    0.7259    1.2257 O   0  0  0  0  0  0
   -3.7894    4.0716   -2.1366 H   0  0  0  0  0  0
   -4.1732    2.4813   -1.4467 H   0  0  0  0  0  0
   -3.1812    2.5952   -2.9133 H   0  0  0  0  0  0
   -1.3501    3.7200   -1.5904 H   0  0  0  0  0  0
   -2.3335    3.6105   -0.1262 H   0  0  0  0  0  0
   -0.5539   -0.1788    0.8407 H   0  0  0  0  0  0
   -0.4940   -0.3731   -0.9148 H   0  0  0  0  0  0
    2.9630   -1.3652    0.3140 H   0  0  0  0  0  0
    1.3938   -1.8067    1.0401 H   0  0  0  0  0  0
    2.6344   -3.6298   -3.3770 H   0  0  0  0  0  0
    1.1079   -2.7284   -3.4233 H   0  0  0  0  0  0
    2.5970   -2.0336   -5.3425 H   0  0  0  0  0  0
    3.8673   -1.5810   -4.1891 H   0  0  0  0  0  0
    2.3328   -0.6826   -4.2112 H   0  0  0  0  0  0
    4.0637    0.7437   -2.9681 H   0  0  0  0  0  0
    3.4947    2.3769   -2.6006 H   0  0  0  0  0  0
    6.0198    2.2946   -2.5949 H   0  0  0  0  0  0
    5.9725    1.0368   -1.3418 H   0  0  0  0  0  0
    5.4042    2.6759   -0.9730 H   0  0  0  0  0  0
    1.5543    1.6403    1.1852 H   0  0  0  0  0  0
  1  2  1  0  0  0
  1 20  1  0  0  0
  1 21  1  0  0  0
  1 22  1  0  0  0
  2  3  1  0  0  0
  2 23  1  0  0  0
  2 24  1  0  0  0
  3  4  1  0  0  0
  4  5  2  0  0  0
  4  6  1  0  0  0
  6  7  1  0  0  0
  6 25  1  0  0  0
  6 26  1  0  0  0
  7  8  1  0  0  0
  7 14  1  0  0  0
  7 19  1  0  0  0
  8  9  1  0  0  0
  8 27  1  0  0  0
  8 28  1  0  0  0
  9 10  2  0  0  0
  9 11  1  0  0  0
 11 12  1  0  0  0
 12 13  1  0  0  0
 12 29  1  0  0  0
 12 30  1  0  0  0
 13 31  1  0  0  0
 13 32  1  0  0  0
 13 33  1  0  0  0
 14 15  2  0  0  0
 14 16  1  0  0  0
 16 17  1  0  0  0
 17 18  1  0  0  0
 17 34  1  0  0  0
 17 35  1  0  0  0
 18 36  1  0  0  0
 18 37  1  0  0  0
 18 38  1  0  0  0
 19 39  1  0  0  0
M  END
>  <i_m_Spin_multiplicity> (1)
1

>  <s_j_Task> (1)
Single Point

>  <s_j_QM_Method> (1)
DFT(b3lyp-d3)

>  <s_j_QM_Basis> (1)
cc-pvtz(-f)

>  <i_j_Number_of_canonical_orbitals> (1)
614

>  <i_j_Geometry_convergence_category> (1)
3

>  <r_j_Gas_Phase_Energy> (1)
-996.325675597372

>  <r_j_Final_Energy> (1)
-996.325675597372

>  <r_j_HOMO> (1)
-0.259318868205889

>  <r_j_LUMO> (1)
-0.00807336553921843

>  <r_j_Polarizability> (1)
163.513837161803

>  <r_j_QM_Dipole_(debye)> (1)
2.41170054937316

>  <r_j_QM_Dipole_X_(debye)> (1)
0.550467139218992

>  <r_j_QM_Dipole_Y_(debye)> (1)
1.24111510875218

>  <r_j_QM_Dipole_Z_(debye)> (1)
-1.99321819059378

>  <r_j_Lowest_Frequency_(cm-1)> (1)
38.1950534470175

>  <r_j_Highest_Frequency_(cm-1)> (1)
3622.92953096129

>  <r_j_2nd_Lowest_Frequency_(cm-1)> (1)
42.7942904895093

>  <i_j_Num_Negative_Frequencies> (1)
0

>  <r_j_Zero_Point_Energy_(kcal/mol)> (1)
202.664844908541

>  <r_j_Entropy_(cal/mol/K)_298.15K_1.00E+00atm> (1)
144.108668799696

>  <r_j_Enthalpy_(kcal/mol)_298.15K_1.00E+00atm> (1)
13.3174877811356

>  <r_j_Free_Energy_(kcal/mol)_298.15K_1.00E+00atm> (1)
-29.6485118214939

>  <r_j_Internal_Energy_(kcal/mol)_298.15K_1.00E+00atm> (1)
12.7250021923083

>  <r_j_Heat_Capacity_(cal/mol/K)_298.15K_1.00E+00atm> (1)
75.7409464041892

>  <r_j_ln(Q)_298.15K_1.00E+00atm> (1)
50.0408995266504

>  <r_j_Total_Internal_Energy_(au)_298.15K_1.00E+00atm> (1)
-995.982430025156

>  <r_j_Total_Enthalpy_(au)_298.15K_1.00E+00atm> (1)
-995.981485839264

>  <r_j_Total_Free_Energy_(au)_298.15K_1.00E+00atm> (1)
-996.049956518444

>  <r_lp_tautomer_probability> (1)
1

>  <r_epik_Ionization_Penalty> (1)
  0.0000

>  <r_epik_Ionization_Penalty_Charging> (1)
  0.0000

>  <r_epik_Ionization_Penalty_Neutral> (1)
  0.0000

>  <r_epik_State_Penalty> (1)
  0.0000

>  <r_epik_Charging_Adjusted_Penalty> (1)
0

>  <i_epik_Tot_Q> (1)
0

>  <i_epik_Tot_abs_Q> (1)
0

>  <s_lp_Force_Field> (1)
S-OPLS

>  <r_lp_Energy> (1)
-1.764046

>  <b_lp_Chiralities_Consistent> (1)
1

>  <s_epik_Chemistry_Notes> (1)
This compound has an ester and may undergo hydrolysis at high or low pH.

$$$$
