6544_Isophorone
                    3D
 Schrodinger Suite 2021-3.
 24 24  0  0  1  0            999 V2000
   -0.0083    0.0521   -0.0237 C   0  0  0  0  0  0
    1.4904   -0.0377    0.0160 C   0  0  0  0  0  0
    2.1375   -1.2178    0.0809 C   0  0  0  0  0  0
    3.6066   -1.3231    0.1356 C   0  0  0  0  0  0
    4.1746   -2.4070    0.1334 O   0  0  0  0  0  0
    4.3779   -0.0129    0.2422 C   0  0  0  0  0  0
    3.7049    1.1623   -0.4977 C   0  0  0  0  0  0
    2.2448    1.2727   -0.0006 C   0  0  0  0  0  0
    4.4544    2.4676   -0.1916 C   0  0  0  0  0  0
    3.7295    0.9111   -2.0187 C   0  0  0  0  0  0
   -0.3787    0.6862    0.7921 H   0  0  0  0  0  0
   -0.4826   -0.9291    0.0575 H   0  0  0  0  0  0
   -0.3393    0.5238   -0.9579 H   0  0  0  0  0  0
    1.5977   -2.1613    0.0857 H   0  0  0  0  0  0
    4.4475    0.2262    1.3141 H   0  0  0  0  0  0
    5.3981   -0.1870   -0.1132 H   0  0  0  0  0  0
    1.6983    2.0041   -0.6108 H   0  0  0  0  0  0
    2.2360    1.6792    1.0231 H   0  0  0  0  0  0
    3.9785    3.3197   -0.6903 H   0  0  0  0  0  0
    5.4911    2.4116   -0.5408 H   0  0  0  0  0  0
    4.4730    2.6734    0.8846 H   0  0  0  0  0  0
    3.2749    1.7500   -2.5573 H   0  0  0  0  0  0
    3.1844    0.0021   -2.2886 H   0  0  0  0  0  0
    4.7596    0.8020   -2.3737 H   0  0  0  0  0  0
  1  2  1  0  0  0
  1 11  1  0  0  0
  1 12  1  0  0  0
  1 13  1  0  0  0
  2  8  1  0  0  0
  2  3  2  0  0  0
  3  4  1  0  0  0
  3 14  1  0  0  0
  4  5  2  0  0  0
  4  6  1  0  0  0
  6  7  1  0  0  0
  6 15  1  0  0  0
  6 16  1  0  0  0
  7  8  1  0  0  0
  7  9  1  0  0  0
  7 10  1  0  0  0
  8 17  1  0  0  0
  8 18  1  0  0  0
  9 19  1  0  0  0
  9 20  1  0  0  0
  9 21  1  0  0  0
 10 22  1  0  0  0
 10 23  1  0  0  0
 10 24  1  0  0  0
M  END
>  <i_m_Spin_multiplicity> (1)
1

>  <s_j_Task> (1)
Single Point

>  <s_j_QM_Method> (1)
DFT(b3lyp-d3)

>  <s_j_QM_Basis> (1)
cc-pvtz(-f)

>  <i_j_Number_of_canonical_orbitals> (1)
352

>  <i_j_Geometry_convergence_category> (1)
3

>  <r_j_Gas_Phase_Energy> (1)
-426.779900924655

>  <r_j_Final_Energy> (1)
-426.779900924655

>  <r_j_HOMO> (1)
-0.245089841898213

>  <r_j_LUMO> (1)
-0.055284574441154

>  <r_j_Polarizability> (1)
106.637702954751

>  <r_j_QM_Dipole_(debye)> (1)
4.27376154382536

>  <r_j_QM_Dipole_X_(debye)> (1)
-2.21983950798299

>  <r_j_QM_Dipole_Y_(debye)> (1)
3.65079989339815

>  <r_j_QM_Dipole_Z_(debye)> (1)
-0.0949232881988432

>  <r_j_Lowest_Frequency_(cm-1)> (1)
115.051982773452

>  <r_j_Highest_Frequency_(cm-1)> (1)
3126.88261668751

>  <r_j_2nd_Lowest_Frequency_(cm-1)> (1)
146.325205841216

>  <i_j_Num_Negative_Frequencies> (1)
0

>  <r_j_Zero_Point_Energy_(kcal/mol)> (1)
131.861835220576

>  <r_j_Entropy_(cal/mol/K)_298.15K_1.00E+00atm> (1)
94.2250477970403

>  <r_j_Enthalpy_(kcal/mol)_298.15K_1.00E+00atm> (1)
6.77844705253663

>  <r_j_Free_Energy_(kcal/mol)_298.15K_1.00E+00atm> (1)
-21.3147509481509

>  <r_j_Internal_Energy_(kcal/mol)_298.15K_1.00E+00atm> (1)
6.18596146370936

>  <r_j_Heat_Capacity_(cal/mol/K)_298.15K_1.00E+00atm> (1)
39.7243391737956

>  <r_j_ln(Q)_298.15K_1.00E+00atm> (1)
35.9751382144836

>  <r_j_Total_Internal_Energy_(au)_298.15K_1.00E+00atm> (1)
-426.559907755972

>  <r_j_Total_Enthalpy_(au)_298.15K_1.00E+00atm> (1)
-426.558963570079

>  <r_j_Total_Free_Energy_(au)_298.15K_1.00E+00atm> (1)
-426.603732931091

>  <r_lp_tautomer_probability> (1)
1

>  <r_epik_Ionization_Penalty> (1)
  0.0000

>  <r_epik_Ionization_Penalty_Charging> (1)
  0.0000

>  <r_epik_Ionization_Penalty_Neutral> (1)
  0.0000

>  <r_epik_State_Penalty> (1)
  0.0000

>  <r_epik_Charging_Adjusted_Penalty> (1)
0

>  <i_epik_Tot_Q> (1)
0

>  <i_epik_Tot_abs_Q> (1)
0

>  <s_lp_Force_Field> (1)
S-OPLS

>  <r_lp_Energy> (1)
11.5828

>  <b_lp_Chiralities_Consistent> (1)
1

$$$$
