6561_Isobutyraldehyde
                    3D
 Schrodinger Suite 2021-3.
 13 12  0  0  1  0            999 V2000
   -0.0351    0.0297   -0.0063 C   0  0  0  0  0  0
    1.5037    0.0044   -0.0070 C   0  0  0  0  0  0
    2.0400   -1.4381   -0.0063 C   0  0  0  0  0  0
    2.0163    0.7296    1.2216 C   0  0  0  0  0  0
    2.7138    1.7189    1.2092 O   0  0  0  0  0  0
   -0.4198    1.0533   -0.0451 H   0  0  0  0  0  0
   -0.4343   -0.4500    0.8952 H   0  0  0  0  0  0
   -0.4249   -0.5144   -0.8723 H   0  0  0  0  0  0
    1.8873    0.5468   -0.8781 H   0  0  0  0  0  0
    3.1334   -1.4599   -0.0449 H   0  0  0  0  0  0
    1.6570   -1.9868   -0.8724 H   0  0  0  0  0  0
    1.7206   -1.9743    0.8952 H   0  0  0  0  0  0
    1.6922    0.2691    2.1880 H   0  0  0  0  0  0
  1  2  1  0  0  0
  1  6  1  0  0  0
  1  7  1  0  0  0
  1  8  1  0  0  0
  2  3  1  0  0  0
  2  4  1  0  0  0
  2  9  1  0  0  0
  3 10  1  0  0  0
  3 11  1  0  0  0
  3 12  1  0  0  0
  4  5  2  0  0  0
  4 13  1  0  0  0
M  END
>  <i_m_Spin_multiplicity> (1)
1

>  <s_j_Task> (1)
Single Point

>  <s_j_QM_Method> (1)
DFT(b3lyp-d3)

>  <s_j_QM_Basis> (1)
cc-pvtz(-f)

>  <i_j_Number_of_canonical_orbitals> (1)
185

>  <i_j_Geometry_convergence_category> (1)
0

>  <r_j_Gas_Phase_Energy> (1)
-232.550647182777

>  <r_j_Final_Energy> (1)
-232.550647182777

>  <r_j_HOMO> (1)
-0.26013618893533

>  <r_j_LUMO> (1)
-0.0369190801846964

>  <r_j_Polarizability> (1)
51.270075100965

>  <r_j_QM_Dipole_(debye)> (1)
2.87045898528321

>  <r_j_QM_Dipole_X_(debye)> (1)
-1.61167955261996

>  <r_j_QM_Dipole_Y_(debye)> (1)
-2.28403911661469

>  <r_j_QM_Dipole_Z_(debye)> (1)
-0.652065272525579

>  <r_j_Lowest_Frequency_(cm-1)> (1)
126.384407040006

>  <r_j_Highest_Frequency_(cm-1)> (1)
3061.55119379048

>  <r_j_2nd_Lowest_Frequency_(cm-1)> (1)
283.733447586567

>  <i_j_Num_Negative_Frequencies> (1)
0

>  <r_j_Zero_Point_Energy_(kcal/mol)> (1)
70.4937348049925

>  <r_j_Entropy_(cal/mol/K)_298.15K_1.00E+00atm> (1)
75.2679479308177

>  <r_j_Enthalpy_(kcal/mol)_298.15K_1.00E+00atm> (1)
4.33835545713606

>  <r_j_Free_Energy_(kcal/mol)_298.15K_1.00E+00atm> (1)
-18.1027832184372

>  <r_j_Internal_Energy_(kcal/mol)_298.15K_1.00E+00atm> (1)
3.74586986830879

>  <r_j_Heat_Capacity_(cal/mol/K)_298.15K_1.00E+00atm> (1)
20.8824557169065

>  <r_j_ln(Q)_298.15K_1.00E+00atm> (1)
30.5539637753361

>  <r_j_Total_Internal_Energy_(au)_298.15K_1.00E+00atm> (1)
-232.432338841273

>  <r_j_Total_Enthalpy_(au)_298.15K_1.00E+00atm> (1)
-232.431394655381

>  <r_j_Total_Free_Energy_(au)_298.15K_1.00E+00atm> (1)
-232.467156886468

>  <r_lp_tautomer_probability> (1)
1

>  <r_epik_Ionization_Penalty> (1)
  0.0000

>  <r_epik_Ionization_Penalty_Charging> (1)
  0.0000

>  <r_epik_Ionization_Penalty_Neutral> (1)
  0.0000

>  <r_epik_State_Penalty> (1)
  0.0000

>  <r_epik_Charging_Adjusted_Penalty> (1)
0

>  <i_epik_Tot_Q> (1)
0

>  <i_epik_Tot_abs_Q> (1)
0

>  <s_lp_Force_Field> (1)
S-OPLS

>  <r_lp_Energy> (1)
1.80327

>  <b_lp_Chiralities_Consistent> (1)
1

$$$$
