6568_Sec-butyl alcohol
                    3D
 Schrodinger Suite 2021-3.
 15 14  0  0  1  0            999 V2000
   -0.4845    1.4885    0.0019 C   0  0  0  0  0  0
    0.0377    0.0490    0.0028 C   0  0  0  0  0  0
    1.5700   -0.0441   -0.0353 C   0  0  0  0  0  0
    2.0593   -1.4863   -0.0112 C   0  0  0  0  0  0
    2.1647    0.5964    1.0980 O   0  0  0  0  0  0
   -1.5780    1.5169   -0.0141 H   0  0  0  0  0  0
   -0.1250    2.0423   -0.8741 H   0  0  0  0  0  0
   -0.1618    2.0271    0.9003 H   0  0  0  0  0  0
   -0.3156   -0.4745    0.9001 H   0  0  0  0  0  0
   -0.3658   -0.4909   -0.8637 H   0  0  0  0  0  0
    1.9235    0.4376   -0.9649 H   0  0  0  0  0  0
    1.6660   -2.0463   -0.8652 H   0  0  0  0  0  0
    1.7289   -1.9764    0.9105 H   0  0  0  0  0  0
    3.1516   -1.5178   -0.0412 H   0  0  0  0  0  0
    1.9953    1.5442    1.0287 H   0  0  0  0  0  0
  1  2  1  0  0  0
  1  6  1  0  0  0
  1  7  1  0  0  0
  1  8  1  0  0  0
  2  3  1  0  0  0
  2  9  1  0  0  0
  2 10  1  0  0  0
  3  4  1  0  0  0
  3  5  1  0  0  0
  3 11  1  0  0  0
  4 12  1  0  0  0
  4 13  1  0  0  0
  4 14  1  0  0  0
  5 15  1  0  0  0
M  END
>  <i_m_Spin_multiplicity> (1)
1

>  <s_j_Task> (1)
Single Point

>  <s_j_QM_Method> (1)
DFT(b3lyp-d3)

>  <s_j_QM_Basis> (1)
cc-pvtz(-f)

>  <i_j_Number_of_canonical_orbitals> (1)
205

>  <i_j_Geometry_convergence_category> (1)
0

>  <r_j_Gas_Phase_Energy> (1)
-233.770531369785

>  <r_j_Final_Energy> (1)
-233.770531369785

>  <r_j_HOMO> (1)
-0.272798999934799

>  <r_j_LUMO> (1)
0.0298419394580802

>  <r_j_Polarizability> (1)
55.0514315901237

>  <r_j_QM_Dipole_(debye)> (1)
1.54914978460969

>  <r_j_QM_Dipole_X_(debye)> (1)
-0.881098220709373

>  <r_j_QM_Dipole_Y_(debye)> (1)
0.656138088605827

>  <r_j_QM_Dipole_Z_(debye)> (1)
-1.09225170601822

>  <r_j_Lowest_Frequency_(cm-1)> (1)
152.070305310325

>  <r_j_Highest_Frequency_(cm-1)> (1)
3773.24447382291

>  <r_j_2nd_Lowest_Frequency_(cm-1)> (1)
264.694526619251

>  <i_j_Num_Negative_Frequencies> (1)
0

>  <r_j_Zero_Point_Energy_(kcal/mol)> (1)
85.5504802991935

>  <r_j_Entropy_(cal/mol/K)_298.15K_1.00E+00atm> (1)
76.3811247228997

>  <r_j_Enthalpy_(kcal/mol)_298.15K_1.00E+00atm> (1)
4.57362931337109

>  <r_j_Free_Energy_(kcal/mol)_298.15K_1.00E+00atm> (1)
-18.1994030227615

>  <r_j_Internal_Energy_(kcal/mol)_298.15K_1.00E+00atm> (1)
3.98114372454382

>  <r_j_Heat_Capacity_(cal/mol/K)_298.15K_1.00E+00atm> (1)
23.2315852485599

>  <r_j_ln(Q)_298.15K_1.00E+00atm> (1)
30.7170391414652

>  <r_j_Total_Internal_Energy_(au)_298.15K_1.00E+00atm> (1)
-233.627853644103

>  <r_j_Total_Enthalpy_(au)_298.15K_1.00E+00atm> (1)
-233.626909458211

>  <r_j_Total_Free_Energy_(au)_298.15K_1.00E+00atm> (1)
-233.663200595516

>  <r_lp_tautomer_probability> (1)
1

>  <r_epik_Ionization_Penalty> (1)
  0.0000

>  <r_epik_Ionization_Penalty_Charging> (1)
  0.0000

>  <r_epik_Ionization_Penalty_Neutral> (1)
  0.0000

>  <r_epik_State_Penalty> (1)
  0.0000

>  <r_epik_Charging_Adjusted_Penalty> (1)
0

>  <i_epik_Tot_Q> (1)
0

>  <i_epik_Tot_abs_Q> (1)
0

>  <s_lp_Force_Field> (1)
S-OPLS

>  <r_lp_Energy> (1)
-0.35272

>  <b_lp_Chiralities_Consistent> (1)
1

$$$$
