6569_Methyl ethyl ketone
                    3D
 Schrodinger Suite 2021-3.
 13 12  0  0  1  0            999 V2000
   -0.3983    1.5007   -0.1206 C   0  0  0  0  0  0
   -0.0606    0.0080    0.0557 C   0  0  0  0  0  0
    1.4504   -0.1940    0.0590 C   0  0  0  0  0  0
    2.0610   -0.3967   -0.9735 O   0  0  0  0  0  0
    2.1531   -0.0912    1.4010 C   0  0  0  0  0  0
   -1.4813    1.6519   -0.1484 H   0  0  0  0  0  0
    0.0252    1.8784   -1.0556 H   0  0  0  0  0  0
    0.0026    2.1029    0.7017 H   0  0  0  0  0  0
   -0.4995   -0.3662    0.9883 H   0  0  0  0  0  0
   -0.4710   -0.5668   -0.7795 H   0  0  0  0  0  0
    1.8812   -0.9543    2.0211 H   0  0  0  0  0  0
    1.8311    0.8039    1.9451 H   0  0  0  0  0  0
    3.2342   -0.0751    1.2571 H   0  0  0  0  0  0
  1  2  1  0  0  0
  1  6  1  0  0  0
  1  7  1  0  0  0
  1  8  1  0  0  0
  2  3  1  0  0  0
  2  9  1  0  0  0
  2 10  1  0  0  0
  3  4  2  0  0  0
  3  5  1  0  0  0
  5 11  1  0  0  0
  5 12  1  0  0  0
  5 13  1  0  0  0
M  END
>  <i_m_Spin_multiplicity> (1)
1

>  <s_j_Task> (1)
Single Point

>  <s_j_QM_Method> (1)
DFT(b3lyp-d3)

>  <s_j_QM_Basis> (1)
cc-pvtz(-f)

>  <i_j_Number_of_canonical_orbitals> (1)
185

>  <i_j_Geometry_convergence_category> (1)
3

>  <r_j_Gas_Phase_Energy> (1)
-232.560338152263

>  <r_j_Final_Energy> (1)
-232.560338152263

>  <r_j_HOMO> (1)
-0.251411486042004

>  <r_j_LUMO> (1)
-0.0248890675775838

>  <r_j_Polarizability> (1)
50.8416662632583

>  <r_j_QM_Dipole_(debye)> (1)
2.90221021821071

>  <r_j_QM_Dipole_X_(debye)> (1)
-1.55297050919127

>  <r_j_QM_Dipole_Y_(debye)> (1)
0.632436294181207

>  <r_j_QM_Dipole_Z_(debye)> (1)
2.36878261604378

>  <r_j_Lowest_Frequency_(cm-1)> (1)
100.218064527933

>  <r_j_Highest_Frequency_(cm-1)> (1)
3101.31709796519

>  <r_j_2nd_Lowest_Frequency_(cm-1)> (1)
226.284752427448

>  <i_j_Num_Negative_Frequencies> (1)
0

>  <r_j_Zero_Point_Energy_(kcal/mol)> (1)
70.5953151083478

>  <r_j_Entropy_(cal/mol/K)_298.15K_1.00E+00atm> (1)
76.0234967383549

>  <r_j_Enthalpy_(kcal/mol)_298.15K_1.00E+00atm> (1)
4.40349566619266

>  <r_j_Free_Energy_(kcal/mol)_298.15K_1.00E+00atm> (1)
-18.2629098863479

>  <r_j_Internal_Energy_(kcal/mol)_298.15K_1.00E+00atm> (1)
3.81101007736539

>  <r_j_Heat_Capacity_(cal/mol/K)_298.15K_1.00E+00atm> (1)
20.9900812971667

>  <r_j_ln(Q)_298.15K_1.00E+00atm> (1)
30.8242263284348

>  <r_j_Total_Internal_Energy_(au)_298.15K_1.00E+00atm> (1)
-232.44176412471

>  <r_j_Total_Enthalpy_(au)_298.15K_1.00E+00atm> (1)
-232.440819938817

>  <r_j_Total_Free_Energy_(au)_298.15K_1.00E+00atm> (1)
-232.476941155526

>  <r_lp_tautomer_probability> (1)
1

>  <r_epik_Ionization_Penalty> (1)
  0.0000

>  <r_epik_Ionization_Penalty_Charging> (1)
  0.0000

>  <r_epik_Ionization_Penalty_Neutral> (1)
  0.0000

>  <r_epik_State_Penalty> (1)
  0.0000

>  <r_epik_Charging_Adjusted_Penalty> (1)
0

>  <i_epik_Tot_Q> (1)
0

>  <i_epik_Tot_abs_Q> (1)
0

>  <s_lp_Force_Field> (1)
S-OPLS

>  <r_lp_Energy> (1)
0.229868

>  <b_lp_Chiralities_Consistent> (1)
1

$$$$
