6574_1,1,2-trichloroethane
                    3D
 Schrodinger Suite 2021-3.
  8  7  0  0  1  0            999 V2000
   -0.0023    0.0140   -0.0341 C   0  0  0  0  0  0
    1.5210    0.0244   -0.0395 C   0  0  0  0  0  0
    2.1915    0.7955   -1.5163 Cl  0  0  0  0  0  0
    2.0864   -1.6873    0.1065 Cl  0  0  0  0  0  0
   -0.6704    1.6833    0.1201 Cl  0  0  0  0  0  0
   -0.3870   -0.4280   -0.9533 H   0  0  0  0  0  0
   -0.3521   -0.5548    0.8283 H   0  0  0  0  0  0
    1.9242    0.5672    0.8139 H   0  0  0  0  0  0
  1  2  1  0  0  0
  1  5  1  0  0  0
  1  6  1  0  0  0
  1  7  1  0  0  0
  2  3  1  0  0  0
  2  4  1  0  0  0
  2  8  1  0  0  0
M  END
>  <i_m_Spin_multiplicity> (1)
1

>  <s_j_Task> (1)
Single Point

>  <s_j_QM_Method> (1)
DFT(b3lyp-d3)

>  <s_j_QM_Basis> (1)
cc-pvtz(-f)

>  <i_j_Number_of_canonical_orbitals> (1)
154

>  <i_j_Geometry_convergence_category> (1)
0

>  <r_j_Gas_Phase_Energy> (1)
-1458.74842265841

>  <r_j_Final_Energy> (1)
-1458.74842265841

>  <r_j_HOMO> (1)
-0.30851563952849

>  <r_j_LUMO> (1)
-0.0312331502530268

>  <r_j_Polarizability> (1)
60.2665875186803

>  <r_j_QM_Dipole_(debye)> (1)
1.27885026108724

>  <r_j_QM_Dipole_X_(debye)> (1)
-0.514724085374665

>  <r_j_QM_Dipole_Y_(debye)> (1)
-0.740950211958728

>  <r_j_QM_Dipole_Z_(debye)> (1)
0.906371827461794

>  <r_j_Lowest_Frequency_(cm-1)> (1)
119.330552397949

>  <r_j_Highest_Frequency_(cm-1)> (1)
3116.93511949385

>  <r_j_2nd_Lowest_Frequency_(cm-1)> (1)
187.908918711993

>  <i_j_Num_Negative_Frequencies> (1)
0

>  <r_j_Zero_Point_Energy_(kcal/mol)> (1)
30.3373145940388

>  <r_j_Entropy_(cal/mol/K)_298.15K_1.00E+00atm> (1)
79.6598422405889

>  <r_j_Enthalpy_(kcal/mol)_298.15K_1.00E+00atm> (1)
4.21173499042187

>  <r_j_Free_Energy_(kcal/mol)_298.15K_1.00E+00atm> (1)
-19.5388469736097

>  <r_j_Internal_Energy_(kcal/mol)_298.15K_1.00E+00atm> (1)
3.61924940159459

>  <r_j_Heat_Capacity_(cal/mol/K)_298.15K_1.00E+00atm> (1)
18.5931059079708

>  <r_j_ln(Q)_298.15K_1.00E+00atm> (1)
32.97775902412

>  <r_j_Total_Internal_Energy_(au)_298.15K_1.00E+00atm> (1)
-1458.69430942886

>  <r_j_Total_Enthalpy_(au)_298.15K_1.00E+00atm> (1)
-1458.69336524297

>  <r_j_Total_Free_Energy_(au)_298.15K_1.00E+00atm> (1)
-1458.73121420478

>  <r_lp_tautomer_probability> (1)
1

>  <r_epik_Ionization_Penalty> (1)
  0.0000

>  <r_epik_Ionization_Penalty_Charging> (1)
  0.0000

>  <r_epik_Ionization_Penalty_Neutral> (1)
  0.0000

>  <r_epik_State_Penalty> (1)
  0.0000

>  <r_epik_Charging_Adjusted_Penalty> (1)
0

>  <i_epik_Tot_Q> (1)
0

>  <i_epik_Tot_abs_Q> (1)
0

>  <s_lp_Force_Field> (1)
S-OPLS

>  <r_lp_Energy> (1)
-0.559809

>  <b_lp_Chiralities_Consistent> (1)
1

$$$$
