6575_Trichloroethylene
                    3D
 Schrodinger Suite 2021-3.
  6  5  0  0  1  0            999 V2000
    1.0312   -0.0403    0.6585 C   0  0  0  0  0  0
    0.1580    0.5644   -0.1537 C   0  0  0  0  0  0
    0.7407    1.5818   -1.4460 Cl  0  0  0  0  0  0
   -1.5634    0.4214   -0.0314 Cl  0  0  0  0  0  0
    0.5933   -1.0741    1.9773 Cl  0  0  0  0  0  0
    2.0969    0.0947    0.5228 H   0  0  0  0  0  0
  1  2  2  0  0  0
  1  5  1  0  0  0
  1  6  1  0  0  0
  2  3  1  0  0  0
  2  4  1  0  0  0
M  END
>  <i_m_Spin_multiplicity> (1)
1

>  <s_j_Task> (1)
Single Point

>  <s_j_QM_Method> (1)
DFT(b3lyp-d3)

>  <s_j_QM_Basis> (1)
cc-pvtz(-f)

>  <i_j_Number_of_canonical_orbitals> (1)
136

>  <i_j_Geometry_convergence_category> (1)
0

>  <r_j_Gas_Phase_Energy> (1)
-1457.50475377505

>  <r_j_Final_Energy> (1)
-1457.50475377505

>  <r_j_HOMO> (1)
-0.265017067139306

>  <r_j_LUMO> (1)
-0.0398316294941398

>  <r_j_Polarizability> (1)
59.8731621779908

>  <r_j_QM_Dipole_(debye)> (1)
0.847915713402055

>  <r_j_QM_Dipole_X_(debye)> (1)
0.840089638187057

>  <r_j_QM_Dipole_Y_(debye)> (1)
0.0841745760023652

>  <r_j_QM_Dipole_Z_(debye)> (1)
-0.0782630027514846

>  <r_j_Lowest_Frequency_(cm-1)> (1)
173.84275136094

>  <r_j_Highest_Frequency_(cm-1)> (1)
3177.7715687304

>  <r_j_2nd_Lowest_Frequency_(cm-1)> (1)
206.123834803392

>  <i_j_Num_Negative_Frequencies> (1)
0

>  <r_j_Zero_Point_Energy_(kcal/mol)> (1)
15.3721355009663

>  <r_j_Entropy_(cal/mol/K)_298.15K_1.00E+00atm> (1)
77.6186515503038

>  <r_j_Enthalpy_(kcal/mol)_298.15K_1.00E+00atm> (1)
3.96264592918274

>  <r_j_Free_Energy_(kcal/mol)_298.15K_1.00E+00atm> (1)
-19.1793550305403

>  <r_j_Internal_Energy_(kcal/mol)_298.15K_1.00E+00atm> (1)
3.37016034035546

>  <r_j_Heat_Capacity_(cal/mol/K)_298.15K_1.00E+00atm> (1)
17.1119960802256

>  <r_j_ln(Q)_298.15K_1.00E+00atm> (1)
32.3710068096384

>  <r_j_Total_Internal_Energy_(au)_298.15K_1.00E+00atm> (1)
-1457.47488602526

>  <r_j_Total_Enthalpy_(au)_298.15K_1.00E+00atm> (1)
-1457.47394183937

>  <r_j_Total_Free_Energy_(au)_298.15K_1.00E+00atm> (1)
-1457.51082096561

>  <r_lp_tautomer_probability> (1)
1

>  <r_epik_Ionization_Penalty> (1)
  0.0000

>  <r_epik_Ionization_Penalty_Charging> (1)
  0.0000

>  <r_epik_Ionization_Penalty_Neutral> (1)
  0.0000

>  <r_epik_State_Penalty> (1)
  0.0000

>  <r_epik_Charging_Adjusted_Penalty> (1)
0

>  <i_epik_Tot_Q> (1)
0

>  <i_epik_Tot_abs_Q> (1)
0

>  <s_lp_Force_Field> (1)
S-OPLS

>  <r_lp_Energy> (1)
0.530237

>  <b_lp_Chiralities_Consistent> (1)
1

$$$$
