6585_Peracetic acid
                    3D
 Schrodinger Suite 2021-3.
  9  8  0  0  1  0            999 V2000
   -0.0119    0.0272    0.0000 C   0  0  0  0  0  0
    1.5014   -0.0128    0.0000 C   0  0  0  0  0  0
    2.1912   -0.9955    0.0000 O   0  0  0  0  0  0
    1.9651    1.2758    0.0000 O   0  0  0  0  0  0
    3.4192    1.2710    0.0000 O   0  0  0  0  0  0
   -0.4083    1.0431    0.0000 H   0  0  0  0  0  0
   -0.3681   -0.5089    0.8835 H   0  0  0  0  0  0
   -0.3681   -0.5090   -0.8834 H   0  0  0  0  0  0
    3.5438    2.2345    0.0001 H   0  0  0  0  0  0
  1  2  1  0  0  0
  1  6  1  0  0  0
  1  7  1  0  0  0
  1  8  1  0  0  0
  2  3  2  0  0  0
  2  4  1  0  0  0
  4  5  1  0  0  0
  5  9  1  0  0  0
M  END
>  <i_m_Spin_multiplicity> (1)
1

>  <s_j_Task> (1)
Single Point

>  <s_j_QM_Method> (1)
DFT(b3lyp-d3)

>  <s_j_QM_Basis> (1)
cc-pvtz(-f)

>  <i_j_Number_of_canonical_orbitals> (1)
151

>  <i_j_Geometry_convergence_category> (1)
0

>  <r_j_Gas_Phase_Energy> (1)
-304.324787956932

>  <r_j_Final_Energy> (1)
-304.324787956932

>  <r_j_HOMO> (1)
-0.288840917000048

>  <r_j_LUMO> (1)
-0.0132355762462205

>  <r_j_Polarizability> (1)
37.5563183282271

>  <r_j_QM_Dipole_(debye)> (1)
3.27259914791681

>  <r_j_QM_Dipole_X_(debye)> (1)
-1.83220718503598

>  <r_j_QM_Dipole_Y_(debye)> (1)
2.71162718129513

>  <r_j_QM_Dipole_Z_(debye)> (1)
0.000209068864019503

>  <r_j_Lowest_Frequency_(cm-1)> (1)
174.001065333893

>  <r_j_Highest_Frequency_(cm-1)> (1)
3719.62356183673

>  <r_j_2nd_Lowest_Frequency_(cm-1)> (1)
216.870806250811

>  <i_j_Num_Negative_Frequencies> (1)
0

>  <r_j_Zero_Point_Energy_(kcal/mol)> (1)
40.423407390826

>  <r_j_Entropy_(cal/mol/K)_298.15K_1.00E+00atm> (1)
74.028049844059

>  <r_j_Enthalpy_(kcal/mol)_298.15K_1.00E+00atm> (1)
4.15867058793928

>  <r_j_Free_Energy_(kcal/mol)_298.15K_1.00E+00atm> (1)
-17.9127924730669

>  <r_j_Internal_Energy_(kcal/mol)_298.15K_1.00E+00atm> (1)
3.56618499911201

>  <r_j_Heat_Capacity_(cal/mol/K)_298.15K_1.00E+00atm> (1)
18.7269801684102

>  <r_j_ln(Q)_298.15K_1.00E+00atm> (1)
30.2332964899995

>  <r_j_Total_Internal_Energy_(au)_298.15K_1.00E+00atm> (1)
-304.254686078804

>  <r_j_Total_Enthalpy_(au)_298.15K_1.00E+00atm> (1)
-304.253741892912

>  <r_j_Total_Free_Energy_(au)_298.15K_1.00E+00atm> (1)
-304.288915008405

>  <r_lp_tautomer_probability> (1)
1

>  <r_epik_Ionization_Penalty> (1)
  0.0000

>  <r_epik_Ionization_Penalty_Charging> (1)
  0.0000

>  <r_epik_Ionization_Penalty_Neutral> (1)
  0.0000

>  <r_epik_State_Penalty> (1)
  0.0000

>  <r_epik_Charging_Adjusted_Penalty> (1)
0

>  <i_epik_Tot_Q> (1)
0

>  <i_epik_Tot_abs_Q> (1)
0

>  <s_lp_Force_Field> (1)
S-OPLS

>  <r_lp_Energy> (1)
2.30118

>  <b_lp_Chiralities_Consistent> (1)
1

$$$$
