6589_2,3-dimethylbutane
                    3D
 Schrodinger Suite 2021-3.
 20 19  0  0  1  0            999 V2000
   -0.5820   -0.7205    1.2547 C   0  0  0  0  0  0
   -0.0254   -0.0274   -0.0001 C   0  0  0  0  0  0
   -0.5817   -0.7215   -1.2546 C   0  0  0  0  0  0
    1.5253    0.0274   -0.0001 C   0  0  0  0  0  0
    2.0820    0.7205    1.2547 C   0  0  0  0  0  0
    2.0817    0.7215   -1.2546 C   0  0  0  0  0  0
   -0.1857   -1.7401    1.3420 H   0  0  0  0  0  0
   -1.6735   -0.7940    1.2052 H   0  0  0  0  0  0
   -0.3322   -0.1844    2.1740 H   0  0  0  0  0  0
   -0.3862    1.0135   -0.0005 H   0  0  0  0  0  0
   -0.1854   -1.7412   -1.3409 H   0  0  0  0  0  0
   -0.3317   -0.1862   -2.1742 H   0  0  0  0  0  0
   -1.6732   -0.7950   -1.2054 H   0  0  0  0  0  0
    1.8862   -1.0135   -0.0005 H   0  0  0  0  0  0
    1.6857    1.7401    1.3420 H   0  0  0  0  0  0
    3.1735    0.7940    1.2052 H   0  0  0  0  0  0
    1.8323    0.1844    2.1740 H   0  0  0  0  0  0
    1.6855    1.7412   -1.3409 H   0  0  0  0  0  0
    1.8317    0.1862   -2.1742 H   0  0  0  0  0  0
    3.1733    0.7949   -1.2054 H   0  0  0  0  0  0
  1  2  1  0  0  0
  1  7  1  0  0  0
  1  8  1  0  0  0
  1  9  1  0  0  0
  2  3  1  0  0  0
  2  4  1  0  0  0
  2 10  1  0  0  0
  3 11  1  0  0  0
  3 12  1  0  0  0
  3 13  1  0  0  0
  4  5  1  0  0  0
  4  6  1  0  0  0
  4 14  1  0  0  0
  5 15  1  0  0  0
  5 16  1  0  0  0
  5 17  1  0  0  0
  6 18  1  0  0  0
  6 19  1  0  0  0
  6 20  1  0  0  0
M  END
>  <i_m_Spin_multiplicity> (1)
1

>  <s_j_Task> (1)
Single Point

>  <s_j_QM_Method> (1)
DFT(b3lyp-d3)

>  <s_j_QM_Basis> (1)
cc-pvtz(-f)

>  <i_j_Number_of_canonical_orbitals> (1)
264

>  <i_j_Geometry_convergence_category> (1)
3

>  <r_j_Gas_Phase_Energy> (1)
-237.182203555761

>  <r_j_Final_Energy> (1)
-237.182203555761

>  <r_j_HOMO> (1)
-0.309206535996269

>  <r_j_LUMO> (1)
0.029887196321023

>  <r_j_Polarizability> (1)
75.0089120650425

>  <r_j_QM_Dipole_(debye)> (1)
0.000115923664787516

>  <r_j_QM_Dipole_X_(debye)> (1)
-0.000113367181484226

>  <r_j_QM_Dipole_Y_(debye)> (1)
2.22650735852444e-05

>  <r_j_QM_Dipole_Z_(debye)> (1)
9.51024281154593e-06

>  <r_j_Lowest_Frequency_(cm-1)> (1)
97.4459910144414

>  <r_j_Highest_Frequency_(cm-1)> (1)
3068.43166733517

>  <r_j_2nd_Lowest_Frequency_(cm-1)> (1)
244.63317835239

>  <i_j_Num_Negative_Frequencies> (1)
0

>  <r_j_Zero_Point_Energy_(kcal/mol)> (1)
117.992086551184

>  <r_j_Entropy_(cal/mol/K)_298.15K_1.00E+00atm> (1)
81.6045899314306

>  <r_j_Enthalpy_(kcal/mol)_298.15K_1.00E+00atm> (1)
5.43795794132504

>  <r_j_Free_Energy_(kcal/mol)_298.15K_1.00E+00atm> (1)
-18.892450546731

>  <r_j_Internal_Energy_(kcal/mol)_298.15K_1.00E+00atm> (1)
4.84547235249777

>  <r_j_Heat_Capacity_(cal/mol/K)_298.15K_1.00E+00atm> (1)
29.6077508424013

>  <r_j_ln(Q)_298.15K_1.00E+00atm> (1)
31.8867680547731

>  <r_j_Total_Internal_Energy_(au)_298.15K_1.00E+00atm> (1)
-236.986449444028

>  <r_j_Total_Enthalpy_(au)_298.15K_1.00E+00atm> (1)
-236.985505258136

>  <r_j_Total_Free_Energy_(au)_298.15K_1.00E+00atm> (1)
-237.024278232332

>  <r_lp_tautomer_probability> (1)
1

>  <r_epik_Ionization_Penalty> (1)
  0.0000

>  <r_epik_Ionization_Penalty_Charging> (1)
  0.0000

>  <r_epik_Ionization_Penalty_Neutral> (1)
  0.0000

>  <r_epik_State_Penalty> (1)
  0.0000

>  <r_epik_Charging_Adjusted_Penalty> (1)
0

>  <i_epik_Tot_Q> (1)
0

>  <i_epik_Tot_abs_Q> (1)
0

>  <s_lp_Force_Field> (1)
S-OPLS

>  <r_lp_Energy> (1)
3.76811

>  <b_lp_Chiralities_Consistent> (1)
1

$$$$
