6590_2-Methyl-propanoic acid
                    3D
 Schrodinger Suite 2021-3.
 13 12  0  0  1  0            999 V2000
   -0.0097    0.0424   -0.0179 C   0  0  0  0  0  0
    1.5235    0.0305   -0.0037 C   0  0  0  0  0  0
    2.0427   -1.4120   -0.0169 C   0  0  0  0  0  0
    2.0425    0.7671    1.2971 C   0  0  0  0  0  0
    1.6716    0.2280    2.3752 O   0  0  0  0  0  0
    2.7498    1.7863    1.1122 O   0  5  0  0  0  0
   -0.3950    1.0682   -0.0765 H   0  0  0  0  0  0
   -0.3656   -0.3932    0.9220 H   0  0  0  0  0  0
   -0.4335   -0.5276   -0.8600 H   0  0  0  0  0  0
    1.9080    0.5734   -0.8775 H   0  0  0  0  0  0
    3.1382   -1.4360   -0.0770 H   0  0  0  0  0  0
    1.6441   -2.0018   -0.8576 H   0  0  0  0  0  0
    1.7512   -1.8902    0.9244 H   0  0  0  0  0  0
  1  2  1  0  0  0
  1  7  1  0  0  0
  1  8  1  0  0  0
  1  9  1  0  0  0
  2  3  1  0  0  0
  2  4  1  0  0  0
  2 10  1  0  0  0
  3 11  1  0  0  0
  3 12  1  0  0  0
  3 13  1  0  0  0
  4  5  2  0  0  0
  4  6  1  0  0  0
M  END
>  <i_m_Spin_multiplicity> (1)
1

>  <s_j_Task> (1)
Single Point

>  <s_j_QM_Method> (1)
DFT(b3lyp-d3)

>  <s_j_QM_Basis> (1)
cc-pvtz(-f)

>  <i_j_Number_of_canonical_orbitals> (1)
201

>  <i_j_Geometry_convergence_category> (1)
0

>  <r_j_Gas_Phase_Energy> (1)
-307.267863048777

>  <r_j_Final_Energy> (1)
-307.267863048777

>  <r_j_HOMO> (1)
-0.0314473728715219

>  <r_j_LUMO> (1)
0.172950847155064

>  <r_j_Polarizability> (1)
60.0664924737869

>  <r_j_QM_Dipole_(debye)> (1)
4.94228980707733

>  <r_j_QM_Dipole_X_(debye)> (1)
-1.95453956949663

>  <r_j_QM_Dipole_Y_(debye)> (1)
-2.76954569913255

>  <r_j_QM_Dipole_Z_(debye)> (1)
-3.59661232673592

>  <r_j_Lowest_Frequency_(cm-1)> (1)
76.2698637206592

>  <r_j_Highest_Frequency_(cm-1)> (1)
3042.48902266403

>  <r_j_2nd_Lowest_Frequency_(cm-1)> (1)
259.895449028946

>  <i_j_Num_Negative_Frequencies> (1)
0

>  <r_j_Zero_Point_Energy_(kcal/mol)> (1)
65.7248133422361

>  <r_j_Entropy_(cal/mol/K)_298.15K_1.00E+00atm> (1)
78.2762525275208

>  <r_j_Enthalpy_(kcal/mol)_298.15K_1.00E+00atm> (1)
4.59896184780696

>  <r_j_Free_Energy_(kcal/mol)_298.15K_1.00E+00atm> (1)
-18.7391028432734

>  <r_j_Internal_Energy_(kcal/mol)_298.15K_1.00E+00atm> (1)
4.00647625897968

>  <r_j_Heat_Capacity_(cal/mol/K)_298.15K_1.00E+00atm> (1)
22.701070335981

>  <r_j_ln(Q)_298.15K_1.00E+00atm> (1)
31.6279470701798

>  <r_j_Total_Internal_Energy_(au)_298.15K_1.00E+00atm> (1)
-307.1567391647

>  <r_j_Total_Enthalpy_(au)_298.15K_1.00E+00atm> (1)
-307.155794978808

>  <r_j_Total_Free_Energy_(au)_298.15K_1.00E+00atm> (1)
-307.192986552492

>  <r_epik_Ionization_Penalty> (1)
  0.0022

>  <r_epik_Ionization_Penalty_Charging> (1)
  0.0022

>  <r_epik_Ionization_Penalty_Neutral> (1)
  0.0000

>  <r_epik_State_Penalty> (1)
  0.0015

>  <r_epik_Charging_Adjusted_Penalty> (1)
0.00379632

>  <i_epik_Tot_Q> (1)
-1

>  <i_epik_Tot_abs_Q> (1)
1

>  <s_lp_Force_Field> (1)
S-OPLS

>  <r_lp_Energy> (1)
8.2236

>  <b_lp_Chiralities_Consistent> (1)
1

$$$$
