6591_1,1,2,2-tetrachloroethane
                    3D
 Schrodinger Suite 2021-3.
  8  7  0  0  1  0            999 V2000
   -0.0211   -0.0080   -0.0006 C   0  0  0  0  0  0
    1.5212    0.0080   -0.0006 C   0  0  0  0  0  0
    2.1443    0.8380    1.4678 Cl  0  0  0  0  0  0
    2.1444    0.8380   -1.4688 Cl  0  0  0  0  0  0
   -0.6443   -0.8379    1.4677 Cl  0  0  0  0  0  0
   -0.6444   -0.8380   -1.4688 Cl  0  0  0  0  0  0
   -0.4121    1.0085   -0.0006 H   0  0  0  0  0  0
    1.9121   -1.0085   -0.0006 H   0  0  0  0  0  0
  1  2  1  0  0  0
  1  5  1  0  0  0
  1  6  1  0  0  0
  1  7  1  0  0  0
  2  3  1  0  0  0
  2  4  1  0  0  0
  2  8  1  0  0  0
M  END
>  <i_m_Spin_multiplicity> (1)
1

>  <s_j_Task> (1)
Single Point

>  <s_j_QM_Method> (1)
DFT(b3lyp-d3)

>  <s_j_QM_Basis> (1)
cc-pvtz(-f)

>  <i_j_Number_of_canonical_orbitals> (1)
172

>  <i_j_Geometry_convergence_category> (1)
1

>  <r_j_Gas_Phase_Energy> (1)
-1918.36689440214

>  <r_j_Final_Energy> (1)
-1918.36689440214

>  <r_j_HOMO> (1)
-0.306729439825926

>  <r_j_LUMO> (1)
-0.0404505139713985

>  <r_j_Polarizability> (1)
71.8648199918527

>  <r_j_QM_Dipole_(debye)> (1)
0.000467764133276441

>  <r_j_QM_Dipole_X_(debye)> (1)
8.9460192687906e-05

>  <r_j_QM_Dipole_Y_(debye)> (1)
-3.19544677212221e-05

>  <r_j_QM_Dipole_Z_(debye)> (1)
-0.000458016451993546

>  <r_j_Lowest_Frequency_(cm-1)> (1)
62.5603620169137

>  <r_j_Highest_Frequency_(cm-1)> (1)
3103.43724423977

>  <r_j_2nd_Lowest_Frequency_(cm-1)> (1)
167.054937401133

>  <i_j_Num_Negative_Frequencies> (1)
0

>  <r_j_Zero_Point_Energy_(kcal/mol)> (1)
24.225148827074

>  <r_j_Entropy_(cal/mol/K)_298.15K_1.00E+00atm> (1)
84.1025292848798

>  <r_j_Enthalpy_(kcal/mol)_298.15K_1.00E+00atm> (1)
4.86592576969736

>  <r_j_Free_Energy_(kcal/mol)_298.15K_1.00E+00atm> (1)
-20.2092433365895

>  <r_j_Internal_Energy_(kcal/mol)_298.15K_1.00E+00atm> (1)
4.27344018087009

>  <r_j_Heat_Capacity_(cal/mol/K)_298.15K_1.00E+00atm> (1)
22.2824518748181

>  <r_j_ln(Q)_298.15K_1.00E+00atm> (1)
34.1092571999774

>  <r_j_Total_Internal_Energy_(au)_298.15K_1.00E+00atm> (1)
-1918.32147900943

>  <r_j_Total_Enthalpy_(au)_298.15K_1.00E+00atm> (1)
-1918.32053482354

>  <r_j_Total_Free_Energy_(au)_298.15K_1.00E+00atm> (1)
-1918.36049464933

>  <r_lp_tautomer_probability> (1)
1

>  <r_epik_Ionization_Penalty> (1)
  0.0000

>  <r_epik_Ionization_Penalty_Charging> (1)
  0.0000

>  <r_epik_Ionization_Penalty_Neutral> (1)
  0.0000

>  <r_epik_State_Penalty> (1)
  0.0000

>  <r_epik_Charging_Adjusted_Penalty> (1)
0

>  <i_epik_Tot_Q> (1)
0

>  <i_epik_Tot_abs_Q> (1)
0

>  <s_lp_Force_Field> (1)
S-OPLS

>  <r_lp_Energy> (1)
-0.096313

>  <b_lp_Chiralities_Consistent> (1)
1

$$$$
