6616_Camphene
                    3D
 Schrodinger Suite 2021-3.
 26 27  0  0  1  0            999 V2000
   -0.0523   -0.0076   -0.0113 C   0  0  0  0  0  0
    1.4905    0.0143    0.0138 C   0  0  0  0  0  0
    2.0513    0.5825   -1.3357 C   0  0  0  0  0  0
    3.5825    0.7924   -1.2530 C   0  0  0  0  0  0
    4.1335   -0.6689   -1.1722 C   0  0  0  0  0  0
    2.8473   -1.5385   -1.3106 C   0  0  0  0  0  0
    1.9947   -0.6601   -2.2568 C   0  0  0  0  0  0
    2.0675   -1.4149   -0.0169 C   0  0  0  0  0  0
    1.9034   -2.3564    0.9110 C   0  0  0  0  0  0
    1.9383    0.7906    1.2647 C   0  0  0  0  0  0
   -0.4488    1.0145   -0.0060 H   0  0  0  0  0  0
   -0.4405   -0.5271    0.8704 H   0  0  0  0  0  0
   -0.4463   -0.5194   -0.8929 H   0  0  0  0  0  0
    1.5047    1.4657   -1.6790 H   0  0  0  0  0  0
    3.9331    1.2921   -2.1620 H   0  0  0  0  0  0
    3.8912    1.4149   -0.4107 H   0  0  0  0  0  0
    4.8261   -0.8808   -1.9935 H   0  0  0  0  0  0
    4.6583   -0.8752   -0.2352 H   0  0  0  0  0  0
    3.0398   -2.5681   -1.6220 H   0  0  0  0  0  0
    0.9890   -1.0540   -2.4245 H   0  0  0  0  0  0
    2.4692   -0.4910   -3.2296 H   0  0  0  0  0  0
    1.3292   -2.1746    1.8158 H   0  0  0  0  0  0
    2.3394   -3.3456    0.8014 H   0  0  0  0  0  0
    1.6560    1.8474    1.1907 H   0  0  0  0  0  0
    3.0175    0.7319    1.4237 H   0  0  0  0  0  0
    1.4572    0.3779    2.1574 H   0  0  0  0  0  0
  1  2  1  0  0  0
  1 11  1  0  0  0
  1 12  1  0  0  0
  1 13  1  0  0  0
  2  8  1  0  0  0
  2  3  1  0  0  0
  2 10  1  0  0  0
  3  7  1  0  0  0
  3  4  1  0  0  0
  3 14  1  0  0  0
  4  5  1  0  0  0
  4 15  1  0  0  0
  4 16  1  0  0  0
  5  6  1  0  0  0
  5 17  1  0  0  0
  5 18  1  0  0  0
  6  7  1  0  0  0
  6  8  1  0  0  0
  6 19  1  0  0  0
  7 20  1  0  0  0
  7 21  1  0  0  0
  8  9  2  0  0  0
  9 22  1  0  0  0
  9 23  1  0  0  0
 10 24  1  0  0  0
 10 25  1  0  0  0
 10 26  1  0  0  0
M  END
>  <i_m_Spin_multiplicity> (1)
1

>  <s_j_Task> (1)
Single Point

>  <s_j_QM_Method> (1)
DFT(b3lyp-d3)

>  <s_j_QM_Basis> (1)
cc-pvtz(-f)

>  <i_j_Number_of_canonical_orbitals> (1)
369

>  <i_j_Geometry_convergence_category> (1)
3

>  <r_j_Gas_Phase_Energy> (1)
-390.827297962561

>  <r_j_Final_Energy> (1)
-390.827297962561

>  <r_j_HOMO> (1)
-0.249237557732323

>  <r_j_LUMO> (1)
0.00499828714997786

>  <r_j_Polarizability> (1)
110.283147483866

>  <r_j_QM_Dipole_(debye)> (1)
0.623874478188922

>  <r_j_QM_Dipole_X_(debye)> (1)
0.112999549635739

>  <r_j_QM_Dipole_Y_(debye)> (1)
0.418268434338278

>  <r_j_QM_Dipole_Z_(debye)> (1)
-0.448889722709069

>  <r_j_Lowest_Frequency_(cm-1)> (1)
118.109858088056

>  <r_j_Highest_Frequency_(cm-1)> (1)
3161.41659470213

>  <r_j_2nd_Lowest_Frequency_(cm-1)> (1)
221.64662755657

>  <i_j_Num_Negative_Frequencies> (1)
0

>  <r_j_Zero_Point_Energy_(kcal/mol)> (1)
148.299361778688

>  <r_j_Entropy_(cal/mol/K)_298.15K_1.00E+00atm> (1)
89.6180232286275

>  <r_j_Enthalpy_(kcal/mol)_298.15K_1.00E+00atm> (1)
6.19499415550398

>  <r_j_Free_Energy_(kcal/mol)_298.15K_1.00E+00atm> (1)
-20.5246194701113

>  <r_j_Internal_Energy_(kcal/mol)_298.15K_1.00E+00atm> (1)
5.6025085666767

>  <r_j_Heat_Capacity_(cal/mol/K)_298.15K_1.00E+00atm> (1)
38.4133883711645

>  <r_j_ln(Q)_298.15K_1.00E+00atm> (1)
34.6415505408939

>  <r_j_Total_Internal_Energy_(au)_298.15K_1.00E+00atm> (1)
-390.582039719135

>  <r_j_Total_Enthalpy_(au)_298.15K_1.00E+00atm> (1)
-390.581095533243

>  <r_j_Total_Free_Energy_(au)_298.15K_1.00E+00atm> (1)
-390.623675948205

>  <r_lp_tautomer_probability> (1)
1

>  <r_epik_Ionization_Penalty> (1)
  0.0000

>  <r_epik_Ionization_Penalty_Charging> (1)
  0.0000

>  <r_epik_Ionization_Penalty_Neutral> (1)
  0.0000

>  <r_epik_State_Penalty> (1)
  0.0000

>  <r_epik_Charging_Adjusted_Penalty> (1)
0

>  <i_epik_Tot_Q> (1)
0

>  <i_epik_Tot_abs_Q> (1)
0

>  <s_lp_Force_Field> (1)
S-OPLS

>  <r_lp_Energy> (1)
31.9733

>  <b_lp_Chiralities_Consistent> (1)
1

$$$$
