6654_Alpha-pinene
                    3D
 Schrodinger Suite 2021-3.
 26 27  0  0  1  0            999 V2000
   -0.0127    0.0483   -0.0231 C   0  0  0  0  0  0
    1.4865   -0.0090   -0.0446 C   0  0  0  0  0  0
    2.2045   -1.1372   -0.1364 C   0  0  0  0  0  0
    3.7179   -1.0734   -0.1029 C   0  0  0  0  0  0
    4.1891    0.3920   -0.0221 C   0  0  0  0  0  0
    3.3815    1.2286   -1.0550 C   0  0  0  0  0  0
    2.2698    1.2940    0.0372 C   0  0  0  0  0  0
    3.4239    1.1730    1.1087 C   0  0  0  0  0  0
    3.1405    0.4696    2.4369 C   0  0  0  0  0  0
    4.0738    2.5309    1.4167 C   0  0  0  0  0  0
   -0.3970    0.6657   -0.8459 H   0  0  0  0  0  0
   -0.3713    0.5120    0.9057 H   0  0  0  0  0  0
   -0.4611   -0.9466   -0.1026 H   0  0  0  0  0  0
    1.7230   -2.1101   -0.2127 H   0  0  0  0  0  0
    4.1022   -1.6478    0.7529 H   0  0  0  0  0  0
    4.1417   -1.5496   -0.9989 H   0  0  0  0  0  0
    5.2825    0.4656   -0.0297 H   0  0  0  0  0  0
    3.8375    2.1956   -1.2737 H   0  0  0  0  0  0
    3.1108    0.7386   -1.9946 H   0  0  0  0  0  0
    1.6219    2.1758    0.0840 H   0  0  0  0  0  0
    2.5113    1.1014    3.0752 H   0  0  0  0  0  0
    4.0772    0.2888    2.9777 H   0  0  0  0  0  0
    2.6302   -0.4860    2.3105 H   0  0  0  0  0  0
    3.4041    3.1424    2.0327 H   0  0  0  0  0  0
    4.3191    3.1099    0.5233 H   0  0  0  0  0  0
    5.0028    2.3863    1.9808 H   0  0  0  0  0  0
  1  2  1  0  0  0
  1 11  1  0  0  0
  1 12  1  0  0  0
  1 13  1  0  0  0
  2  7  1  0  0  0
  2  3  2  0  0  0
  3  4  1  0  0  0
  3 14  1  0  0  0
  4  5  1  0  0  0
  4 15  1  0  0  0
  4 16  1  0  0  0
  5  8  1  0  0  0
  5  6  1  0  0  0
  5 17  1  0  0  0
  6  7  1  0  0  0
  6 18  1  0  0  0
  6 19  1  0  0  0
  7  8  1  0  0  0
  7 20  1  0  0  0
  8  9  1  0  0  0
  8 10  1  0  0  0
  9 21  1  0  0  0
  9 22  1  0  0  0
  9 23  1  0  0  0
 10 24  1  0  0  0
 10 25  1  0  0  0
 10 26  1  0  0  0
M  END
>  <i_m_Spin_multiplicity> (1)
1

>  <s_j_Task> (1)
Single Point

>  <s_j_QM_Method> (1)
DFT(b3lyp-d3)

>  <s_j_QM_Basis> (1)
cc-pvtz(-f)

>  <i_j_Number_of_canonical_orbitals> (1)
369

>  <i_j_Geometry_convergence_category> (1)
0

>  <r_j_Gas_Phase_Energy> (1)
-390.807840577594

>  <r_j_Final_Energy> (1)
-390.807840577594

>  <r_j_HOMO> (1)
-0.227701141421863

>  <r_j_LUMO> (1)
0.0139470479819921

>  <r_j_Polarizability> (1)
110.944656398102

>  <r_j_QM_Dipole_(debye)> (1)
0.159440222913959

>  <r_j_QM_Dipole_X_(debye)> (1)
-0.018298238964071

>  <r_j_QM_Dipole_Y_(debye)> (1)
0.157544462915972

>  <r_j_QM_Dipole_Z_(debye)> (1)
0.0163126128558487

>  <r_j_Lowest_Frequency_(cm-1)> (1)
139.584983748207

>  <r_j_Highest_Frequency_(cm-1)> (1)
3104.71096658928

>  <r_j_2nd_Lowest_Frequency_(cm-1)> (1)
206.383640593197

>  <i_j_Num_Negative_Frequencies> (1)
0

>  <r_j_Zero_Point_Energy_(kcal/mol)> (1)
147.333023746837

>  <r_j_Entropy_(cal/mol/K)_298.15K_1.00E+00atm> (1)
91.2148726291173

>  <r_j_Enthalpy_(kcal/mol)_298.15K_1.00E+00atm> (1)
6.46433800066628

>  <r_j_Free_Energy_(kcal/mol)_298.15K_1.00E+00atm> (1)
-20.731376273705

>  <r_j_Internal_Energy_(kcal/mol)_298.15K_1.00E+00atm> (1)
5.87185241183901

>  <r_j_Heat_Capacity_(cal/mol/K)_298.15K_1.00E+00atm> (1)
39.5543553325131

>  <r_j_ln(Q)_298.15K_1.00E+00atm> (1)
34.9905156591898

>  <r_j_Total_Internal_Energy_(au)_298.15K_1.00E+00atm> (1)
-390.563693065113

>  <r_j_Total_Enthalpy_(au)_298.15K_1.00E+00atm> (1)
-390.562748879221

>  <r_j_Total_Free_Energy_(au)_298.15K_1.00E+00atm> (1)
-390.606088008867

>  <r_lp_tautomer_probability> (1)
1

>  <r_epik_Ionization_Penalty> (1)
  0.0000

>  <r_epik_Ionization_Penalty_Charging> (1)
  0.0000

>  <r_epik_Ionization_Penalty_Neutral> (1)
  0.0000

>  <r_epik_State_Penalty> (1)
  0.0000

>  <r_epik_Charging_Adjusted_Penalty> (1)
0

>  <i_epik_Tot_Q> (1)
0

>  <i_epik_Tot_abs_Q> (1)
0

>  <s_lp_Force_Field> (1)
S-OPLS

>  <r_lp_Energy> (1)
26.0286

>  <b_lp_Chiralities_Consistent> (1)
1

$$$$
