6724_Acenaphthenequinone
                    3D
 Schrodinger Suite 2021-3.
 20 22  0  0  1  0            999 V2000
    0.0416    1.0378   -0.0147 C   0  0  0  0  0  0
   -1.1736    1.7040    0.0221 C   0  0  0  0  0  0
   -1.2215    3.1249    0.0545 C   0  0  0  0  0  0
    0.0227    3.7893    0.0466 C   0  0  0  0  0  0
    1.2618    3.1060    0.0090 C   0  0  0  0  0  0
    1.2811    1.7290   -0.0219 C   0  0  0  0  0  0
    2.3388    4.1287    0.0121 C   0  0  0  0  0  0
    3.5402    3.9801   -0.0128 O   0  0  0  0  0  0
    1.5931    5.5256    0.0563 C   0  0  0  0  0  0
    2.1379    6.6068    0.0700 O   0  0  0  0  0  0
    0.1442    5.1993    0.0756 C   0  0  0  0  0  0
   -0.9892    5.9812    0.1136 C   0  0  0  0  0  0
   -2.2530    5.3355    0.1224 C   0  0  0  0  0  0
   -2.3755    3.9550    0.0939 C   0  0  0  0  0  0
    0.0475   -0.0477   -0.0389 H   0  0  0  0  0  0
   -2.1014    1.1383    0.0265 H   0  0  0  0  0  0
    2.2216    1.1879   -0.0510 H   0  0  0  0  0  0
   -0.9154    7.0639    0.1363 H   0  0  0  0  0  0
   -3.1516    5.9443    0.1523 H   0  0  0  0  0  0
   -3.3615    3.4984    0.1017 H   0  0  0  0  0  0
  1  6  1  0  0  0
  1  2  2  0  0  0
  1 15  1  0  0  0
  2  3  1  0  0  0
  2 16  1  0  0  0
  3 14  1  0  0  0
  3  4  2  0  0  0
  4 11  1  0  0  0
  4  5  1  0  0  0
  5  6  2  0  0  0
  5  7  1  0  0  0
  6 17  1  0  0  0
  7  8  2  0  0  0
  7  9  1  0  0  0
  9 10  2  0  0  0
  9 11  1  0  0  0
 11 12  2  0  0  0
 12 13  1  0  0  0
 12 18  1  0  0  0
 13 14  2  0  0  0
 13 19  1  0  0  0
 14 20  1  0  0  0
M  END
>  <i_m_Spin_multiplicity> (1)
1

>  <s_j_Task> (1)
Single Point

>  <s_j_QM_Method> (1)
DFT(b3lyp-d3)

>  <s_j_QM_Basis> (1)
cc-pvtz(-f)

>  <i_j_Number_of_canonical_orbitals> (1)
366

>  <i_j_Geometry_convergence_category> (1)
0

>  <r_j_Gas_Phase_Energy> (1)
-611.535569333889

>  <r_j_Final_Energy> (1)
-611.535569333889

>  <r_j_HOMO> (1)
-0.221177586395898

>  <r_j_LUMO> (1)
-0.0854096003562712

>  <r_j_Polarizability> (1)
138.197089375031

>  <r_j_QM_Dipole_(debye)> (1)
6.45891199265098

>  <r_j_QM_Dipole_X_(debye)> (1)
-5.69693325814403

>  <r_j_QM_Dipole_Y_(debye)> (1)
-3.04321657763157

>  <r_j_QM_Dipole_Z_(debye)> (1)
0.0364478077735522

>  <r_j_Lowest_Frequency_(cm-1)> (1)
106.233620980993

>  <r_j_Highest_Frequency_(cm-1)> (1)
3155.03570461477

>  <r_j_2nd_Lowest_Frequency_(cm-1)> (1)
161.985792040792

>  <i_j_Num_Negative_Frequencies> (1)
0

>  <r_j_Zero_Point_Energy_(kcal/mol)> (1)
90.5241067806582

>  <r_j_Entropy_(cal/mol/K)_298.15K_1.00E+00atm> (1)
94.4225166730864

>  <r_j_Enthalpy_(kcal/mol)_298.15K_1.00E+00atm> (1)
6.41535594821783

>  <r_j_Free_Energy_(kcal/mol)_298.15K_1.00E+00atm> (1)
-21.7367173978629

>  <r_j_Internal_Energy_(kcal/mol)_298.15K_1.00E+00atm> (1)
5.82287035939055

>  <r_j_Heat_Capacity_(cal/mol/K)_298.15K_1.00E+00atm> (1)
38.3464269216602

>  <r_j_ln(Q)_298.15K_1.00E+00atm> (1)
36.6873351989658

>  <r_j_Total_Internal_Energy_(au)_298.15K_1.00E+00atm> (1)
-611.382030651613

>  <r_j_Total_Enthalpy_(au)_298.15K_1.00E+00atm> (1)
-611.381086465721

>  <r_j_Total_Free_Energy_(au)_298.15K_1.00E+00atm> (1)
-611.425949650568

>  <r_lp_tautomer_probability> (1)
1

>  <r_epik_Ionization_Penalty> (1)
  0.0000

>  <r_epik_Ionization_Penalty_Charging> (1)
  0.0000

>  <r_epik_Ionization_Penalty_Neutral> (1)
  0.0000

>  <r_epik_State_Penalty> (1)
  0.0000

>  <r_epik_Charging_Adjusted_Penalty> (1)
0

>  <i_epik_Tot_Q> (1)
0

>  <i_epik_Tot_abs_Q> (1)
0

>  <s_lp_Force_Field> (1)
S-OPLS

>  <r_lp_Energy> (1)
24.3888

>  <b_lp_Chiralities_Consistent> (1)
1

$$$$
