6735_1-Indanone
                    3D
 Schrodinger Suite 2021-3.
 18 19  0  0  1  0            999 V2000
    6.2756    0.3733   -4.1482 C   0  0  0  0  0  0
    7.0042   -0.9905   -4.0728 C   0  0  0  0  0  0
    5.9083   -2.0685   -4.1361 C   0  0  0  0  0  0
    6.0870   -3.2716   -4.1022 O   0  0  0  0  0  0
    4.6091   -1.3665   -4.2449 C   0  0  0  0  0  0
    3.3363   -1.9343   -4.3313 C   0  0  0  0  0  0
    2.2404   -1.0825   -4.4274 C   0  0  0  0  0  0
    2.4282    0.3087   -4.4356 C   0  0  0  0  0  0
    3.7046    0.8685   -4.3488 C   0  0  0  0  0  0
    4.8047    0.0168   -4.2526 C   0  0  0  0  0  0
    6.5953    0.9645   -5.0138 H   0  0  0  0  0  0
    6.4646    0.9915   -3.2633 H   0  0  0  0  0  0
    7.7038   -1.1492   -4.8993 H   0  0  0  0  0  0
    7.5755   -1.1212   -3.1485 H   0  0  0  0  0  0
    3.2282   -3.0147   -4.3220 H   0  0  0  0  0  0
    1.2359   -1.4894   -4.4964 H   0  0  0  0  0  0
    1.5628    0.9615   -4.5111 H   0  0  0  0  0  0
    3.8331    1.9476   -4.3565 H   0  0  0  0  0  0
  1 10  1  0  0  0
  1  2  1  0  0  0
  1 11  1  0  0  0
  1 12  1  0  0  0
  2  3  1  0  0  0
  2 13  1  0  0  0
  2 14  1  0  0  0
  3  4  2  0  0  0
  3  5  1  0  0  0
  5 10  1  0  0  0
  5  6  2  0  0  0
  6  7  1  0  0  0
  6 15  1  0  0  0
  7  8  2  0  0  0
  7 16  1  0  0  0
  8  9  1  0  0  0
  8 17  1  0  0  0
  9 10  2  0  0  0
  9 18  1  0  0  0
M  END
>  <i_m_Spin_multiplicity> (1)
1

>  <s_j_Task> (1)
Single Point

>  <s_j_QM_Method> (1)
DFT(b3lyp-d3)

>  <s_j_QM_Basis> (1)
cc-pvtz(-f)

>  <i_j_Number_of_canonical_orbitals> (1)
296

>  <i_j_Geometry_convergence_category> (1)
0

>  <r_j_Gas_Phase_Energy> (1)
-423.153885300608

>  <r_j_Final_Energy> (1)
-423.153885300608

>  <r_j_HOMO> (1)
-0.23476764292716

>  <r_j_LUMO> (1)
-0.0464883611103654

>  <r_j_Polarizability> (1)
99.7809201870547

>  <r_j_QM_Dipole_(debye)> (1)
3.57816291651906

>  <r_j_QM_Dipole_X_(debye)> (1)
-0.892679376401158

>  <r_j_QM_Dipole_Y_(debye)> (1)
3.46273978176565

>  <r_j_QM_Dipole_Z_(debye)> (1)
-0.12572426924722

>  <r_j_Lowest_Frequency_(cm-1)> (1)
128.696887123072

>  <r_j_Highest_Frequency_(cm-1)> (1)
3151.7382034028

>  <r_j_2nd_Lowest_Frequency_(cm-1)> (1)
154.488251993594

>  <i_j_Num_Negative_Frequencies> (1)
0

>  <r_j_Zero_Point_Energy_(kcal/mol)> (1)
90.7117489708074

>  <r_j_Entropy_(cal/mol/K)_298.15K_1.00E+00atm> (1)
85.0577184551342

>  <r_j_Enthalpy_(kcal/mol)_298.15K_1.00E+00atm> (1)
5.22634084247777

>  <r_j_Free_Energy_(kcal/mol)_298.15K_1.00E+00atm> (1)
-20.1336179149205

>  <r_j_Internal_Energy_(kcal/mol)_298.15K_1.00E+00atm> (1)
4.63385525365049

>  <r_j_Heat_Capacity_(cal/mol/K)_298.15K_1.00E+00atm> (1)
29.7756055804675

>  <r_j_ln(Q)_298.15K_1.00E+00atm> (1)
33.9816162529313

>  <r_j_Total_Internal_Energy_(au)_298.15K_1.00E+00atm> (1)
-423.001942407659

>  <r_j_Total_Enthalpy_(au)_298.15K_1.00E+00atm> (1)
-423.000998221767

>  <r_j_Total_Free_Energy_(au)_298.15K_1.00E+00atm> (1)
-423.041411888763

>  <r_lp_tautomer_probability> (1)
1

>  <r_epik_Ionization_Penalty> (1)
  0.0000

>  <r_epik_Ionization_Penalty_Charging> (1)
  0.0000

>  <r_epik_Ionization_Penalty_Neutral> (1)
  0.0000

>  <r_epik_State_Penalty> (1)
  0.0000

>  <r_epik_Charging_Adjusted_Penalty> (1)
0

>  <i_epik_Tot_Q> (1)
0

>  <i_epik_Tot_abs_Q> (1)
0

>  <s_lp_Force_Field> (1)
S-OPLS

>  <r_lp_Energy> (1)
7.68319

>  <b_lp_Chiralities_Consistent> (1)
1

$$$$
