6781_Diethyl phthalate
                    3D
 Schrodinger Suite 2021-3.
 30 30  0  0  1  0            999 V2000
   -2.2783   -1.6092    1.3533 C   0  0  0  0  0  0
   -1.7616   -0.5371    0.4150 C   0  0  0  0  0  0
   -0.3190   -0.6225    0.4273 O   0  0  0  0  0  0
    0.3289    0.3353   -0.2655 C   0  0  0  0  0  0
   -0.2281    1.1642   -0.9560 O   0  0  0  0  0  0
    1.8151    0.1955   -0.1579 C   0  0  0  0  0  0
    2.5437    0.4129   -1.3316 C   0  0  0  0  0  0
    3.9216    0.2108   -1.3602 C   0  0  0  0  0  0
    4.5852   -0.2162   -0.2097 C   0  0  0  0  0  0
    3.8712   -0.4147    0.9697 C   0  0  0  0  0  0
    2.4911   -0.1936    1.0138 C   0  0  0  0  0  0
    1.8404   -0.3329    2.3543 C   0  0  0  0  0  0
    2.1582   -1.1632    3.1812 O   0  0  0  0  0  0
    0.9176    0.6259    2.5690 O   0  0  0  0  0  0
    0.2035    0.5380    3.8224 C   0  0  0  0  0  0
   -0.8676    1.6098    3.7998 C   0  0  0  0  0  0
   -3.3722   -1.5965    1.3711 H   0  0  0  0  0  0
   -1.9127   -1.4410    2.3705 H   0  0  0  0  0  0
   -1.9471   -2.6000    1.0304 H   0  0  0  0  0  0
   -2.1152   -0.6772   -0.6118 H   0  0  0  0  0  0
   -2.0581    0.4692    0.7287 H   0  0  0  0  0  0
    2.0071    0.7293   -2.2197 H   0  0  0  0  0  0
    4.4735    0.3775   -2.2802 H   0  0  0  0  0  0
    5.6574   -0.3864   -0.2277 H   0  0  0  0  0  0
    4.3715   -0.7317    1.8786 H   0  0  0  0  0  0
   -0.2163   -0.4686    3.9192 H   0  0  0  0  0  0
    0.9137    0.6767    4.6443 H   0  0  0  0  0  0
   -1.4330    1.5947    4.7364 H   0  0  0  0  0  0
   -1.5629    1.4435    2.9719 H   0  0  0  0  0  0
   -0.4222    2.6011    3.6783 H   0  0  0  0  0  0
  1  2  1  0  0  0
  1 17  1  0  0  0
  1 18  1  0  0  0
  1 19  1  0  0  0
  2  3  1  0  0  0
  2 20  1  0  0  0
  2 21  1  0  0  0
  3  4  1  0  0  0
  4  5  2  0  0  0
  4  6  1  0  0  0
  6 11  1  0  0  0
  6  7  2  0  0  0
  7  8  1  0  0  0
  7 22  1  0  0  0
  8  9  2  0  0  0
  8 23  1  0  0  0
  9 10  1  0  0  0
  9 24  1  0  0  0
 10 11  2  0  0  0
 10 25  1  0  0  0
 11 12  1  0  0  0
 12 13  2  0  0  0
 12 14  1  0  0  0
 14 15  1  0  0  0
 15 16  1  0  0  0
 15 26  1  0  0  0
 15 27  1  0  0  0
 16 28  1  0  0  0
 16 29  1  0  0  0
 16 30  1  0  0  0
M  END
>  <i_m_Spin_multiplicity> (1)
1

>  <s_j_Task> (1)
Single Point

>  <s_j_QM_Method> (1)
DFT(b3lyp-d3)

>  <s_j_QM_Basis> (1)
cc-pvtz(-f)

>  <i_j_Number_of_canonical_orbitals> (1)
488

>  <i_j_Geometry_convergence_category> (1)
0

>  <r_j_Gas_Phase_Energy> (1)
-766.918202843622

>  <r_j_Final_Energy> (1)
-766.918202843622

>  <r_j_HOMO> (1)
-0.269602785506402

>  <r_j_LUMO> (1)
-0.0674213742270679

>  <r_j_Polarizability> (1)
150.931957327182

>  <r_j_QM_Dipole_(debye)> (1)
0.539692703889684

>  <r_j_QM_Dipole_X_(debye)> (1)
-0.468547501288496

>  <r_j_QM_Dipole_Y_(debye)> (1)
-0.00467653508350665

>  <r_j_QM_Dipole_Z_(debye)> (1)
0.267786451650709

>  <r_j_Lowest_Frequency_(cm-1)> (1)
61.5410869256149

>  <r_j_Highest_Frequency_(cm-1)> (1)
3161.08626611114

>  <r_j_2nd_Lowest_Frequency_(cm-1)> (1)
65.1094974179047

>  <i_j_Num_Negative_Frequencies> (1)
0

>  <r_j_Zero_Point_Energy_(kcal/mol)> (1)
151.908446305715

>  <r_j_Entropy_(cal/mol/K)_298.15K_1.00E+00atm> (1)
120.642438016914

>  <r_j_Enthalpy_(kcal/mol)_298.15K_1.00E+00atm> (1)
10.0102974190036

>  <r_j_Free_Energy_(kcal/mol)_298.15K_1.00E+00atm> (1)
-25.9592454757394

>  <r_j_Internal_Energy_(kcal/mol)_298.15K_1.00E+00atm> (1)
9.41781183017631

>  <r_j_Heat_Capacity_(cal/mol/K)_298.15K_1.00E+00atm> (1)
56.8525869772141

>  <r_j_ln(Q)_298.15K_1.00E+00atm> (1)
43.8141382090345

>  <r_j_Total_Internal_Energy_(au)_298.15K_1.00E+00atm> (1)
-766.661113085063

>  <r_j_Total_Enthalpy_(au)_298.15K_1.00E+00atm> (1)
-766.660168899171

>  <r_j_Total_Free_Energy_(au)_298.15K_1.00E+00atm> (1)
-766.71749001481

>  <r_lp_tautomer_probability> (1)
1

>  <r_epik_Ionization_Penalty> (1)
  0.0000

>  <r_epik_Ionization_Penalty_Charging> (1)
  0.0000

>  <r_epik_Ionization_Penalty_Neutral> (1)
  0.0000

>  <r_epik_State_Penalty> (1)
  0.0000

>  <r_epik_Charging_Adjusted_Penalty> (1)
0

>  <i_epik_Tot_Q> (1)
0

>  <i_epik_Tot_abs_Q> (1)
0

>  <s_lp_Force_Field> (1)
S-OPLS

>  <r_lp_Energy> (1)
16.3658

>  <b_lp_Chiralities_Consistent> (1)
1

>  <s_epik_Chemistry_Notes> (1)
This compound has an ester and may undergo hydrolysis at high or low pH.

$$$$
