68084_1,7-dimethylphenanthrene
                    3D
 Schrodinger Suite 2021-3.
 30 32  0  0  1  0            999 V2000
   -0.0516   -0.0199    0.0000 C   0  0  0  0  0  0
    1.4573    0.0039    0.0000 C   0  0  0  0  0  0
    2.1714    1.1870    0.0000 C   0  0  0  0  0  0
    3.5857    1.2062    0.0000 C   0  0  0  0  0  0
    4.3163   -0.0136    0.0000 C   0  0  0  0  0  0
    3.5670   -1.2151    0.0000 C   0  0  0  0  0  0
    2.1872   -1.2067    0.0000 C   0  0  0  0  0  0
    5.7742    0.0223    0.0000 C   0  0  0  0  0  0
    6.5483   -1.1591    0.0000 C   0  0  0  0  0  0
    7.9281   -1.1076   -0.0001 C   0  0  0  0  0  0
    8.5861    0.1300   -0.0001 C   0  0  0  0  0  0
    7.8797    1.3238    0.0000 C   0  0  0  0  0  0
    6.4523    1.2852    0.0000 C   0  0  0  0  0  0
    5.6578    2.4835    0.0001 C   0  0  0  0  0  0
    4.2994    2.4465    0.0000 C   0  0  0  0  0  0
    8.6825    2.6106    0.0000 C   0  0  0  0  0  0
   -0.4711    0.9899    0.0000 H   0  0  0  0  0  0
   -0.4383   -0.5454    0.8811 H   0  0  0  0  0  0
   -0.4383   -0.5454   -0.8811 H   0  0  0  0  0  0
    1.6423    2.1375    0.0000 H   0  0  0  0  0  0
    4.0750   -2.1724    0.0001 H   0  0  0  0  0  0
    1.6471   -2.1505    0.0001 H   0  0  0  0  0  0
    6.0625   -2.1273    0.0000 H   0  0  0  0  0  0
    8.5060   -2.0271   -0.0001 H   0  0  0  0  0  0
    9.6731    0.1597   -0.0002 H   0  0  0  0  0  0
    6.1508    3.4475    0.0001 H   0  0  0  0  0  0
    3.7283    3.3709    0.0000 H   0  0  0  0  0  0
    8.0753    3.5150   -0.0005 H   0  0  0  0  0  0
    9.3327    2.6553   -0.8808 H   0  0  0  0  0  0
    9.3319    2.6557    0.8814 H   0  0  0  0  0  0
  1  2  1  0  0  0
  1 17  1  0  0  0
  1 18  1  0  0  0
  1 19  1  0  0  0
  2  7  1  0  0  0
  2  3  2  0  0  0
  3  4  1  0  0  0
  3 20  1  0  0  0
  4 15  1  0  0  0
  4  5  2  0  0  0
  5  6  1  0  0  0
  5  8  1  0  0  0
  6  7  2  0  0  0
  6 21  1  0  0  0
  7 22  1  0  0  0
  8 13  1  0  0  0
  8  9  2  0  0  0
  9 10  1  0  0  0
  9 23  1  0  0  0
 10 11  2  0  0  0
 10 24  1  0  0  0
 11 12  1  0  0  0
 11 25  1  0  0  0
 12 13  2  0  0  0
 12 16  1  0  0  0
 13 14  1  0  0  0
 14 15  2  0  0  0
 14 26  1  0  0  0
 15 27  1  0  0  0
 16 28  1  0  0  0
 16 29  1  0  0  0
 16 30  1  0  0  0
M  END
>  <i_m_Spin_multiplicity> (1)
1

>  <s_j_Task> (1)
Single Point

>  <s_j_QM_Method> (1)
DFT(b3lyp-d3)

>  <s_j_QM_Basis> (1)
cc-pvtz(-f)

>  <i_j_Number_of_canonical_orbitals> (1)
479

>  <i_j_Geometry_convergence_category> (1)
0

>  <r_j_Gas_Phase_Energy> (1)
-618.377741900712

>  <r_j_Final_Energy> (1)
-618.377741900712

>  <r_j_HOMO> (1)
-0.210919863208724

>  <r_j_LUMO> (1)
-0.0422374424663143

>  <r_j_Polarizability> (1)
194.68259533801

>  <r_j_QM_Dipole_(debye)> (1)
0.251110349247626

>  <r_j_QM_Dipole_X_(debye)> (1)
-0.178549308284971

>  <r_j_QM_Dipole_Y_(debye)> (1)
0.176568807506884

>  <r_j_QM_Dipole_Z_(debye)> (1)
9.06963072557973e-05

>  <r_j_Lowest_Frequency_(cm-1)> (1)
55.8743890669038

>  <r_j_Highest_Frequency_(cm-1)> (1)
3168.68132857375

>  <r_j_2nd_Lowest_Frequency_(cm-1)> (1)
86.9396830095539

>  <i_j_Num_Negative_Frequencies> (1)
0

>  <r_j_Zero_Point_Energy_(kcal/mol)> (1)
155.818017972846

>  <r_j_Entropy_(cal/mol/K)_298.15K_1.00E+00atm> (1)
108.747603610753

>  <r_j_Enthalpy_(kcal/mol)_298.15K_1.00E+00atm> (1)
8.47204035820496

>  <r_j_Free_Energy_(kcal/mol)_298.15K_1.00E+00atm> (1)
-23.951057658341

>  <r_j_Internal_Energy_(kcal/mol)_298.15K_1.00E+00atm> (1)
7.87955476937769

>  <r_j_Heat_Capacity_(cal/mol/K)_298.15K_1.00E+00atm> (1)
52.0306173700469

>  <r_j_ln(Q)_298.15K_1.00E+00atm> (1)
40.4247092418705

>  <r_j_Total_Internal_Energy_(au)_298.15K_1.00E+00atm> (1)
-618.116873211763

>  <r_j_Total_Enthalpy_(au)_298.15K_1.00E+00atm> (1)
-618.115929025871

>  <r_j_Total_Free_Energy_(au)_298.15K_1.00E+00atm> (1)
-618.167598521817

>  <r_lp_tautomer_probability> (1)
1

>  <r_epik_Ionization_Penalty> (1)
  0.0000

>  <r_epik_Ionization_Penalty_Charging> (1)
  0.0000

>  <r_epik_Ionization_Penalty_Neutral> (1)
  0.0000

>  <r_epik_State_Penalty> (1)
  0.0000

>  <r_epik_Charging_Adjusted_Penalty> (1)
0

>  <i_epik_Tot_Q> (1)
0

>  <i_epik_Tot_abs_Q> (1)
0

>  <s_lp_Force_Field> (1)
S-OPLS

>  <r_lp_Energy> (1)
32.741

>  <b_lp_Chiralities_Consistent> (1)
1

$$$$
