6811_Phthalic anhydride
                    3D
 Schrodinger Suite 2021-3.
 15 16  0  0  1  0            999 V2000
    4.4537    0.2396    0.0137 C   0  0  0  0  0  0
    4.7750    1.1124    1.0639 C   0  0  0  0  0  0
    5.9128    1.9244    1.0098 C   0  0  0  0  0  0
    6.7037    1.8253   -0.1269 C   0  0  0  0  0  0
    6.3852    0.9601   -1.1679 C   0  0  0  0  0  0
    5.2592    0.1491   -1.1264 C   0  0  0  0  0  0
    7.4287    1.1048   -2.2119 C   0  0  0  0  0  0
    7.5517    0.5571   -3.2706 O   0  0  0  0  0  0
    8.3426    2.0608   -1.7529 O   0  0  0  0  0  0
    7.9545    2.5331   -0.4934 C   0  0  0  0  0  0
    8.5838    3.3606    0.1024 O   0  0  0  0  0  0
    3.5625   -0.3758    0.0902 H   0  0  0  0  0  0
    4.1265    1.1563    1.9336 H   0  0  0  0  0  0
    6.1728    2.6035    1.8146 H   0  0  0  0  0  0
    5.0224   -0.5214   -1.9454 H   0  0  0  0  0  0
  1  6  1  0  0  0
  1  2  2  0  0  0
  1 12  1  0  0  0
  2  3  1  0  0  0
  2 13  1  0  0  0
  3  4  2  0  0  0
  3 14  1  0  0  0
  4 10  1  0  0  0
  4  5  1  0  0  0
  5  6  2  0  0  0
  5  7  1  0  0  0
  6 15  1  0  0  0
  7  8  2  0  0  0
  7  9  1  0  0  0
  9 10  1  0  0  0
 10 11  2  0  0  0
M  END
>  <i_m_Spin_multiplicity> (1)
1

>  <s_j_Task> (1)
Single Point

>  <s_j_QM_Method> (1)
DFT(b3lyp-d3)

>  <s_j_QM_Basis> (1)
cc-pvtz(-f)

>  <i_j_Number_of_canonical_orbitals> (1)
283

>  <i_j_Geometry_convergence_category> (1)
0

>  <r_j_Gas_Phase_Energy> (1)
-533.135758327111

>  <r_j_Final_Energy> (1)
-533.135758327111

>  <r_j_HOMO> (1)
-0.286314916593942

>  <r_j_LUMO> (1)
-0.0945067231320437

>  <r_j_Polarizability> (1)
92.3775183732057

>  <r_j_QM_Dipole_(debye)> (1)
5.76978511978953

>  <r_j_QM_Dipole_X_(debye)> (1)
-4.68584307161836

>  <r_j_QM_Dipole_Y_(debye)> (1)
-1.74068365786778

>  <r_j_QM_Dipole_Z_(debye)> (1)
2.88154740372997

>  <r_j_Lowest_Frequency_(cm-1)> (1)
149.123432016205

>  <r_j_Highest_Frequency_(cm-1)> (1)
3165.52588786935

>  <r_j_2nd_Lowest_Frequency_(cm-1)> (1)
183.050353467556

>  <i_j_Num_Negative_Frequencies> (1)
0

>  <r_j_Zero_Point_Energy_(kcal/mol)> (1)
64.4537924018908

>  <r_j_Entropy_(cal/mol/K)_298.15K_1.00E+00atm> (1)
86.2281807209151

>  <r_j_Enthalpy_(kcal/mol)_298.15K_1.00E+00atm> (1)
5.2922081999523

>  <r_j_Free_Energy_(kcal/mol)_298.15K_1.00E+00atm> (1)
-20.4167238819885

>  <r_j_Internal_Energy_(kcal/mol)_298.15K_1.00E+00atm> (1)
4.69972261112503

>  <r_j_Heat_Capacity_(cal/mol/K)_298.15K_1.00E+00atm> (1)
29.5653201614468

>  <r_j_ln(Q)_298.15K_1.00E+00atm> (1)
34.4594438531408

>  <r_j_Total_Internal_Energy_(au)_298.15K_1.00E+00atm> (1)
-533.025555185455

>  <r_j_Total_Enthalpy_(au)_298.15K_1.00E+00atm> (1)
-533.024610999562

>  <r_j_Total_Free_Energy_(au)_298.15K_1.00E+00atm> (1)
-533.065580790954

>  <r_lp_tautomer_probability> (1)
1

>  <r_epik_Ionization_Penalty> (1)
  0.0000

>  <r_epik_Ionization_Penalty_Charging> (1)
  0.0000

>  <r_epik_Ionization_Penalty_Neutral> (1)
  0.0000

>  <r_epik_State_Penalty> (1)
  0.0000

>  <r_epik_Charging_Adjusted_Penalty> (1)
0

>  <i_epik_Tot_Q> (1)
0

>  <i_epik_Tot_abs_Q> (1)
0

>  <s_lp_Force_Field> (1)
S-OPLS

>  <r_lp_Energy> (1)
3.75321

>  <b_lp_Chiralities_Consistent> (1)
1

$$$$
