6829_2-nitrobiphenyl
                    3D
 Schrodinger Suite 2021-3.
 24 25  0  0  1  0            999 V2000
   -2.8308    0.0073   -0.1044 C   0  0  0  0  0  0
   -2.1254   -1.0653    0.4449 C   0  0  0  0  0  0
   -0.7369   -1.0224    0.5224 C   0  0  0  0  0  0
   -0.0320    0.0946    0.0511 C   0  0  0  0  0  0
   -0.7464    1.1628   -0.5060 C   0  0  0  0  0  0
   -2.1378    1.1207   -0.5793 C   0  0  0  0  0  0
    1.4521    0.1201    0.0800 C   0  0  0  0  0  0
    2.1615    0.4245   -1.0921 C   0  0  0  0  0  0
    3.5530    0.3821   -1.1390 C   0  0  0  0  0  0
    4.2841    0.0034   -0.0122 C   0  0  0  0  0  0
    3.6127   -0.3135    1.1644 C   0  0  0  0  0  0
    2.2231   -0.2272    1.2013 C   0  0  0  0  0  0
    1.5901   -0.4674    2.5115 N   0  3  1  0  0  0
    0.6831    0.2854    2.8549 O   0  0  0  0  0  0
    2.0390   -1.3937    3.1890 O   0  5  0  0  0  0
   -3.9148   -0.0254   -0.1607 H   0  0  0  0  0  0
   -2.6575   -1.9378    0.8120 H   0  0  0  0  0  0
   -0.1921   -1.8634    0.9420 H   0  0  0  0  0  0
   -0.2089    2.0376   -0.8601 H   0  0  0  0  0  0
   -2.6804    1.9614   -1.0015 H   0  0  0  0  0  0
    1.5961    0.6686   -1.9858 H   0  0  0  0  0  0
    4.0663    0.6271   -2.0639 H   0  0  0  0  0  0
    5.3675   -0.0453   -0.0477 H   0  0  0  0  0  0
    4.1437   -0.6102    2.0613 H   0  0  0  0  0  0
  1  6  1  0  0  0
  1  2  2  0  0  0
  1 16  1  0  0  0
  2  3  1  0  0  0
  2 17  1  0  0  0
  3  4  2  0  0  0
  3 18  1  0  0  0
  4  5  1  0  0  0
  4  7  1  0  0  0
  5  6  2  0  0  0
  5 19  1  0  0  0
  6 20  1  0  0  0
  7 12  1  0  0  0
  7  8  2  0  0  0
  8  9  1  0  0  0
  8 21  1  0  0  0
  9 10  2  0  0  0
  9 22  1  0  0  0
 10 11  1  0  0  0
 10 23  1  0  0  0
 11 12  2  0  0  0
 11 24  1  0  0  0
 12 13  1  0  0  0
 13 14  2  0  0  0
 13 15  1  0  0  0
M  END
>  <i_m_Spin_multiplicity> (1)
1

>  <s_j_Task> (1)
Single Point

>  <s_j_QM_Method> (1)
DFT(b3lyp-d3)

>  <s_j_QM_Basis> (1)
cc-pvtz(-f)

>  <i_j_Number_of_canonical_orbitals> (1)
416

>  <i_j_Geometry_convergence_category> (1)
0

>  <r_j_Gas_Phase_Energy> (1)
-668.029770231337

>  <r_j_Final_Energy> (1)
-668.029770231337

>  <r_j_HOMO> (1)
-0.25081120108169

>  <r_j_LUMO> (1)
-0.099780676629876

>  <r_j_Polarizability> (1)
149.232021780641

>  <r_j_QM_Dipole_(debye)> (1)
3.95975861612741

>  <r_j_QM_Dipole_X_(debye)> (1)
1.09955883258605

>  <r_j_QM_Dipole_Y_(debye)> (1)
0.752586010350418

>  <r_j_QM_Dipole_Z_(debye)> (1)
-3.72884338216317

>  <r_j_Lowest_Frequency_(cm-1)> (1)
84.6166910380747

>  <r_j_Highest_Frequency_(cm-1)> (1)
3172.56436561808

>  <r_j_2nd_Lowest_Frequency_(cm-1)> (1)
87.6815050764029

>  <i_j_Num_Negative_Frequencies> (1)
0

>  <r_j_Zero_Point_Energy_(kcal/mol)> (1)
114.783416343257

>  <r_j_Entropy_(cal/mol/K)_298.15K_1.00E+00atm> (1)
103.77245712747

>  <r_j_Enthalpy_(kcal/mol)_298.15K_1.00E+00atm> (1)
7.56193974568192

>  <r_j_Free_Energy_(kcal/mol)_298.15K_1.00E+00atm> (1)
-23.3778183468734

>  <r_j_Internal_Energy_(kcal/mol)_298.15K_1.00E+00atm> (1)
6.96945415685465

>  <r_j_Heat_Capacity_(cal/mol/K)_298.15K_1.00E+00atm> (1)
44.5383617979047

>  <r_j_ln(Q)_298.15K_1.00E+00atm> (1)
39.4571932005061

>  <r_j_Total_Internal_Energy_(au)_298.15K_1.00E+00atm> (1)
-667.835744680615

>  <r_j_Total_Enthalpy_(au)_298.15K_1.00E+00atm> (1)
-667.834800494723

>  <r_j_Total_Free_Energy_(au)_298.15K_1.00E+00atm> (1)
-667.884106138019

>  <r_lp_tautomer_probability> (1)
1

>  <r_epik_Ionization_Penalty> (1)
  0.0000

>  <r_epik_Ionization_Penalty_Charging> (1)
  0.0000

>  <r_epik_Ionization_Penalty_Neutral> (1)
  0.0000

>  <r_epik_State_Penalty> (1)
  0.0000

>  <r_epik_Charging_Adjusted_Penalty> (1)
0

>  <i_epik_Tot_Q> (1)
0

>  <i_epik_Tot_abs_Q> (1)
2

>  <s_lp_Force_Field> (1)
S-OPLS

>  <r_lp_Energy> (1)
28.012261

>  <b_lp_Chiralities_Consistent> (1)
1

$$$$
