6857535_Ergostane
                    3D
 Schrodinger Suite 2021-3.
 78 81  0  0  1  0            999 V2000
   -2.6267    3.2434   -0.5554 C   0  0  0  0  0  0
   -2.0490    1.8241   -0.6897 C   0  0  0  0  0  0
   -3.0247    0.8223   -0.0477 C   0  0  0  0  0  0
   -0.6132    1.7156   -0.1035 C   0  0  0  0  0  0
    0.3528    2.7055   -0.7754 C   0  0  0  0  0  0
   -0.0731    0.2728   -0.1885 C   0  0  0  0  0  0
    1.3563    0.0667    0.3381 C   0  0  0  0  0  0
    1.6963   -1.4285    0.5579 C   0  0  0  0  0  0
    1.0617   -1.9212    1.8705 C   0  0  0  0  0  0
    3.2271   -1.6697    0.4371 C   0  0  0  0  0  0
    4.0424   -1.0292    1.5950 C   0  0  0  0  0  0
    4.4771   -2.1877    2.5297 C   0  0  0  0  0  0
    3.9590   -3.5069    1.8956 C   0  0  0  0  0  0
    3.7171   -3.1573    0.3963 C   0  0  0  0  0  0
    5.0733   -3.2039   -0.3546 C   0  0  0  0  0  0
    5.8703   -4.4976   -0.1284 C   0  0  0  0  0  0
    6.1891   -4.7019    1.3671 C   0  0  0  0  0  0
    4.8739   -4.7176    2.1974 C   0  0  0  0  0  0
    4.1320   -6.0649    2.0798 C   0  0  0  0  0  0
    5.0309   -7.2564    2.4284 C   0  0  0  0  0  0
    6.3007   -7.2586    1.5665 C   0  0  0  0  0  0
    7.1067   -5.9296    1.7074 C   0  0  0  0  0  0
    8.3205   -6.0045    0.7440 C   0  0  0  0  0  0
    9.2169   -7.2309    0.9820 C   0  0  0  0  0  0
    8.4013   -8.5293    0.8843 C   0  0  0  0  0  0
    7.1735   -8.5032    1.8072 C   0  0  0  0  0  0
    7.6438   -5.7317    3.1462 C   0  0  0  0  0  0
    2.7220   -4.0803   -0.3271 C   0  0  0  0  0  0
   -2.6458    3.5559    0.4963 H   0  0  0  0  0  0
   -3.6557    3.2789   -0.9285 H   0  0  0  0  0  0
   -2.0525    3.9859   -1.1149 H   0  0  0  0  0  0
   -1.9802    1.5874   -1.7633 H   0  0  0  0  0  0
   -3.0459    0.9453    1.0426 H   0  0  0  0  0  0
   -2.7625   -0.2167   -0.2621 H   0  0  0  0  0  0
   -4.0427    0.9838   -0.4174 H   0  0  0  0  0  0
   -0.6786    1.9800    0.9650 H   0  0  0  0  0  0
    0.4409    2.4909   -1.8479 H   0  0  0  0  0  0
    1.3539    2.6428   -0.3410 H   0  0  0  0  0  0
    0.0223    3.7412   -0.6669 H   0  0  0  0  0  0
   -0.7449   -0.3872    0.3687 H   0  0  0  0  0  0
   -0.1171   -0.0662   -1.2346 H   0  0  0  0  0  0
    2.0730    0.5034   -0.3668 H   0  0  0  0  0  0
    1.4837    0.6176    1.2809 H   0  0  0  0  0  0
    1.2207   -1.9762   -0.2665 H   0  0  0  0  0  0
    1.5887   -1.5183    2.7424 H   0  0  0  0  0  0
    1.0660   -3.0102    1.9525 H   0  0  0  0  0  0
    0.0186   -1.5976    1.9456 H   0  0  0  0  0  0
    3.5117   -1.2059   -0.5174 H   0  0  0  0  0  0
    4.9196   -0.5085    1.1992 H   0  0  0  0  0  0
    3.4609   -0.2704    2.1264 H   0  0  0  0  0  0
    5.5674   -2.2111    2.6289 H   0  0  0  0  0  0
    4.0815   -2.0707    3.5442 H   0  0  0  0  0  0
    2.9870   -3.7329    2.3463 H   0  0  0  0  0  0
    4.8922   -3.0566   -1.4274 H   0  0  0  0  0  0
    5.7006   -2.3617   -0.0350 H   0  0  0  0  0  0
    5.3249   -5.3590   -0.5315 H   0  0  0  0  0  0
    6.7957   -4.4291   -0.7071 H   0  0  0  0  0  0
    6.7588   -3.8111    1.6717 H   0  0  0  0  0  0
    5.1492   -4.6173    3.2559 H   0  0  0  0  0  0
    3.2502   -6.0465    2.7329 H   0  0  0  0  0  0
    3.7513   -6.2034    1.0627 H   0  0  0  0  0  0
    5.3001   -7.2293    3.4927 H   0  0  0  0  0  0
    4.4838   -8.1959    2.2769 H   0  0  0  0  0  0
    5.9717   -7.3087    0.5160 H   0  0  0  0  0  0
    7.9587   -6.0630   -0.2889 H   0  0  0  0  0  0
    8.9060   -5.0780    0.8171 H   0  0  0  0  0  0
   10.0277   -7.2401    0.2435 H   0  0  0  0  0  0
    9.7014   -7.1702    1.9640 H   0  0  0  0  0  0
    8.0595   -8.6546   -0.1534 H   0  0  0  0  0  0
    9.0318   -9.3974    1.1108 H   0  0  0  0  0  0
    7.4941   -8.5377    2.8567 H   0  0  0  0  0  0
    6.5666   -9.4038    1.6475 H   0  0  0  0  0  0
    8.2695   -6.5622    3.4781 H   0  0  0  0  0  0
    6.8455   -5.6224    3.8824 H   0  0  0  0  0  0
    8.2564   -4.8242    3.1912 H   0  0  0  0  0  0
    3.1505   -5.0639   -0.5303 H   0  0  0  0  0  0
    2.4400   -3.6511   -1.2957 H   0  0  0  0  0  0
    1.8061   -4.2387    0.2488 H   0  0  0  0  0  0
  1  2  1  0  0  0
  1 29  1  0  0  0
  1 30  1  0  0  0
  1 31  1  0  0  0
  2  3  1  0  0  0
  2  4  1  0  0  0
  2 32  1  0  0  0
  3 33  1  0  0  0
  3 34  1  0  0  0
  3 35  1  0  0  0
  4  5  1  0  0  0
  4  6  1  0  0  0
  4 36  1  0  0  0
  5 37  1  0  0  0
  5 38  1  0  0  0
  5 39  1  0  0  0
  6  7  1  0  0  0
  6 40  1  0  0  0
  6 41  1  0  0  0
  7  8  1  0  0  0
  7 42  1  0  0  0
  7 43  1  0  0  0
  8  9  1  0  0  0
  8 10  1  0  0  0
  8 44  1  0  0  0
  9 45  1  0  0  0
  9 46  1  0  0  0
  9 47  1  0  0  0
 10 14  1  0  0  0
 10 11  1  0  0  0
 10 48  1  0  0  0
 11 12  1  0  0  0
 11 49  1  0  0  0
 11 50  1  0  0  0
 12 13  1  0  0  0
 12 51  1  0  0  0
 12 52  1  0  0  0
 13 18  1  0  0  0
 13 14  1  0  0  0
 13 53  1  0  0  0
 14 15  1  0  0  0
 14 28  1  0  0  0
 15 16  1  0  0  0
 15 54  1  0  0  0
 15 55  1  0  0  0
 16 17  1  0  0  0
 16 56  1  0  0  0
 16 57  1  0  0  0
 17 22  1  0  0  0
 17 18  1  0  0  0
 17 58  1  0  0  0
 18 19  1  0  0  0
 18 59  1  0  0  0
 19 20  1  0  0  0
 19 60  1  0  0  0
 19 61  1  0  0  0
 20 21  1  0  0  0
 20 62  1  0  0  0
 20 63  1  0  0  0
 21 26  1  0  0  0
 21 22  1  0  0  0
 21 64  1  0  0  0
 22 23  1  0  0  0
 22 27  1  0  0  0
 23 24  1  0  0  0
 23 65  1  0  0  0
 23 66  1  0  0  0
 24 25  1  0  0  0
 24 67  1  0  0  0
 24 68  1  0  0  0
 25 26  1  0  0  0
 25 69  1  0  0  0
 25 70  1  0  0  0
 26 71  1  0  0  0
 26 72  1  0  0  0
 27 73  1  0  0  0
 27 74  1  0  0  0
 27 75  1  0  0  0
 28 76  1  0  0  0
 28 77  1  0  0  0
 28 78  1  0  0  0
M  END
>  <i_m_Spin_multiplicity> (1)
1

>  <s_j_Task> (1)
Single Point

>  <s_j_QM_Method> (1)
DFT(b3lyp-d3)

>  <s_j_QM_Basis> (1)
cc-pvtz(-f)

>  <i_j_Number_of_canonical_orbitals> (1)
1076

>  <i_j_Geometry_convergence_category> (1)
1

>  <r_j_Gas_Phase_Energy> (1)
-1097.5748316849

>  <r_j_Final_Energy> (1)
-1097.5748316849

>  <r_j_HOMO> (1)
-0.287464885414367

>  <r_j_LUMO> (1)
-0.0149272760594924

>  <r_j_Polarizability> (1)
318.45075028572

>  <r_j_QM_Dipole_(debye)> (1)
0.177585738623199

>  <r_j_QM_Dipole_X_(debye)> (1)
0.0570823372812478

>  <r_j_QM_Dipole_Y_(debye)> (1)
-0.0862632036885741

>  <r_j_QM_Dipole_Z_(debye)> (1)
-0.1443501334334

>  <r_j_Lowest_Frequency_(cm-1)> (1)
39.076836772109

>  <r_j_Highest_Frequency_(cm-1)> (1)
3082.34691996575

>  <r_j_2nd_Lowest_Frequency_(cm-1)> (1)
40.5621014392323

>  <i_j_Num_Negative_Frequencies> (1)
0

>  <r_j_Zero_Point_Energy_(kcal/mol)> (1)
459.645300938015

>  <r_j_Entropy_(cal/mol/K)_298.15K_1.00E+00atm> (1)
169.174982899314

>  <r_j_Enthalpy_(kcal/mol)_298.15K_1.00E+00atm> (1)
17.8390025879643

>  <r_j_Free_Energy_(kcal/mol)_298.15K_1.00E+00atm> (1)
-32.6005185634661

>  <r_j_Internal_Energy_(kcal/mol)_298.15K_1.00E+00atm> (1)
17.246516999137

>  <r_j_Heat_Capacity_(cal/mol/K)_298.15K_1.00E+00atm> (1)
118.429734673586

>  <r_j_ln(Q)_298.15K_1.00E+00atm> (1)
55.0233105719809

>  <r_j_Total_Internal_Energy_(au)_298.15K_1.00E+00atm> (1)
-1096.81485619332

>  <r_j_Total_Enthalpy_(au)_298.15K_1.00E+00atm> (1)
-1096.81391200743

>  <r_j_Total_Free_Energy_(au)_298.15K_1.00E+00atm> (1)
-1096.89429250137

>  <r_lp_tautomer_probability> (1)
1

>  <r_epik_Ionization_Penalty> (1)
  0.0000

>  <r_epik_Ionization_Penalty_Charging> (1)
  0.0000

>  <r_epik_Ionization_Penalty_Neutral> (1)
  0.0000

>  <r_epik_State_Penalty> (1)
  0.0000

>  <r_epik_Charging_Adjusted_Penalty> (1)
0

>  <i_epik_Tot_Q> (1)
0

>  <i_epik_Tot_abs_Q> (1)
0

>  <s_lp_Force_Field> (1)
S-OPLS

>  <r_lp_Energy> (1)
59.753196

>  <b_lp_Chiralities_Consistent> (1)
1

$$$$
