6895_Trichlorobenzenes
                    3D
 Schrodinger Suite 2021-3.
 12 12  0  0  1  0            999 V2000
    1.2039    1.8052   -0.0004 C   0  0  0  0  0  0
    0.0137    1.0845    0.0051 C   0  0  0  0  0  0
   -1.2065    1.7595    0.0191 C   0  0  0  0  0  0
   -1.2525    3.1648    0.0277 C   0  0  0  0  0  0
   -0.0373    3.8720    0.0220 C   0  0  0  0  0  0
    1.1826    3.1964    0.0080 C   0  0  0  0  0  0
   -0.0117    5.6208    0.0321 Cl  0  0  0  0  0  0
   -2.7750    4.0075    0.0451 Cl  0  0  0  0  0  0
   -2.6749    0.8091    0.0254 Cl  0  0  0  0  0  0
    2.1533    1.2798   -0.0112 H   0  0  0  0  0  0
    0.0159    0.0008   -0.0013 H   0  0  0  0  0  0
    2.1021    3.7700    0.0038 H   0  0  0  0  0  0
  1  6  1  0  0  0
  1  2  2  0  0  0
  1 10  1  0  0  0
  2  3  1  0  0  0
  2 11  1  0  0  0
  3  4  2  0  0  0
  3  9  1  0  0  0
  4  5  1  0  0  0
  4  8  1  0  0  0
  5  6  2  0  0  0
  5  7  1  0  0  0
  6 12  1  0  0  0
M  END
>  <i_m_Spin_multiplicity> (1)
1

>  <s_j_Task> (1)
Single Point

>  <s_j_QM_Method> (1)
DFT(b3lyp-d3)

>  <s_j_QM_Basis> (1)
cc-pvtz(-f)

>  <i_j_Number_of_canonical_orbitals> (1)
242

>  <i_j_Geometry_convergence_category> (1)
0

>  <r_j_Gas_Phase_Energy> (1)
-1611.21293600951

>  <r_j_Final_Energy> (1)
-1611.21293600951

>  <r_j_HOMO> (1)
-0.248317522768025

>  <r_j_LUMO> (1)
-0.0311244863937658

>  <r_j_Polarizability> (1)
101.769298181055

>  <r_j_QM_Dipole_(debye)> (1)
2.5724069936148

>  <r_j_QM_Dipole_X_(debye)> (1)
2.25077480159364

>  <r_j_QM_Dipole_Y_(debye)> (1)
-1.24524245359801

>  <r_j_QM_Dipole_Z_(debye)> (1)
-0.0257247947838818

>  <r_j_Lowest_Frequency_(cm-1)> (1)
88.6088353667274

>  <r_j_Highest_Frequency_(cm-1)> (1)
3171.39579996317

>  <r_j_2nd_Lowest_Frequency_(cm-1)> (1)
207.612836466197

>  <i_j_Num_Negative_Frequencies> (1)
0

>  <r_j_Zero_Point_Energy_(kcal/mol)> (1)
44.8093668874203

>  <r_j_Entropy_(cal/mol/K)_298.15K_1.00E+00atm> (1)
89.3735529586281

>  <r_j_Enthalpy_(kcal/mol)_298.15K_1.00E+00atm> (1)
5.46767042759902

>  <r_j_Free_Energy_(kcal/mol)_298.15K_1.00E+00atm> (1)
-21.1790543870159

>  <r_j_Internal_Energy_(kcal/mol)_298.15K_1.00E+00atm> (1)
4.87518483877175

>  <r_j_Heat_Capacity_(cal/mol/K)_298.15K_1.00E+00atm> (1)
28.3698152507913

>  <r_j_ln(Q)_298.15K_1.00E+00atm> (1)
35.7461089120097

>  <r_j_Total_Internal_Energy_(au)_298.15K_1.00E+00atm> (1)
-1611.13375863593

>  <r_j_Total_Enthalpy_(au)_298.15K_1.00E+00atm> (1)
-1611.13281445004

>  <r_j_Total_Free_Energy_(au)_298.15K_1.00E+00atm> (1)
-1611.17527870929

>  <r_lp_tautomer_probability> (1)
1

>  <r_epik_Ionization_Penalty> (1)
  0.0000

>  <r_epik_Ionization_Penalty_Charging> (1)
  0.0000

>  <r_epik_Ionization_Penalty_Neutral> (1)
  0.0000

>  <r_epik_State_Penalty> (1)
  0.0000

>  <r_epik_Charging_Adjusted_Penalty> (1)
0

>  <i_epik_Tot_Q> (1)
0

>  <i_epik_Tot_abs_Q> (1)
0

>  <s_lp_Force_Field> (1)
S-OPLS

>  <r_lp_Energy> (1)
11.190942

>  <b_lp_Chiralities_Consistent> (1)
1

$$$$
