6901_Hexachlorobutadiene
                    3D
 Schrodinger Suite 2021-3.
 10  9  0  0  1  0            999 V2000
    0.0117   -0.0756    0.0016 C   0  0  0  0  0  0
   -0.7561   -1.2109   -0.0011 C   0  0  0  0  0  0
   -2.4990   -1.1321    0.0004 Cl  0  0  0  0  0  0
   -0.2477   -2.8693   -0.0064 Cl  0  0  0  0  0  0
    1.4881    0.0758    0.0016 C   0  0  0  0  0  0
    2.2561    1.2109   -0.0011 C   0  0  0  0  0  0
    3.9989    1.1318    0.0003 Cl  0  0  0  0  0  0
    1.7482    2.8694   -0.0063 Cl  0  0  0  0  0  0
    2.4200   -1.4144    0.0059 Cl  0  0  0  0  0  0
   -0.9203    1.4145    0.0058 Cl  0  0  0  0  0  0
  1  2  2  0  0  0
  1  5  1  0  0  0
  1 10  1  0  0  0
  2  3  1  0  0  0
  2  4  1  0  0  0
  5  6  2  0  0  0
  5  9  1  0  0  0
  6  7  1  0  0  0
  6  8  1  0  0  0
M  END
>  <i_m_Spin_multiplicity> (1)
1

>  <s_j_Task> (1)
Single Point

>  <s_j_QM_Method> (1)
DFT(b3lyp-d3)

>  <s_j_QM_Basis> (1)
cc-pvtz(-f)

>  <i_j_Number_of_canonical_orbitals> (1)
251

>  <i_j_Geometry_convergence_category> (1)
1

>  <r_j_Gas_Phase_Energy> (1)
-2913.77715915594

>  <r_j_Final_Energy> (1)
-2913.77715915594

>  <r_j_HOMO> (1)
-0.249658324402991

>  <r_j_LUMO> (1)
-0.0924373298485469

>  <r_j_Polarizability> (1)
131.407946123674

>  <r_j_QM_Dipole_(debye)> (1)
0.00183655828359791

>  <r_j_QM_Dipole_X_(debye)> (1)
-0.000231248496443491

>  <r_j_QM_Dipole_Y_(debye)> (1)
-0.000430334791289462

>  <r_j_QM_Dipole_Z_(debye)> (1)
-0.00177039047369517

>  <r_j_Lowest_Frequency_(cm-1)> (1)
-50.0917838358222

>  <r_j_Highest_Frequency_(cm-1)> (1)
1497.73717279621

>  <r_j_2nd_Lowest_Frequency_(cm-1)> (1)
61.0567102685885

>  <i_j_Num_Negative_Frequencies> (1)
1

>  <r_j_Zero_Point_Energy_(kcal/mol)> (1)
18.165317699061

>  <r_j_Entropy_(cal/mol/K)_298.15K_1.00E+00atm> (1)
99.8204584150688

>  <r_j_Enthalpy_(kcal/mol)_298.15K_1.00E+00atm> (1)
6.81586219782296

>  <r_j_Free_Energy_(kcal/mol)_298.15K_1.00E+00atm> (1)
-22.9456074786298

>  <r_j_Internal_Energy_(kcal/mol)_298.15K_1.00E+00atm> (1)
6.22337660899569

>  <r_j_Heat_Capacity_(cal/mol/K)_298.15K_1.00E+00atm> (1)
34.1181168698355

>  <r_j_ln(Q)_298.15K_1.00E+00atm> (1)
38.7277056376118

>  <r_j_Total_Internal_Energy_(au)_298.15K_1.00E+00atm> (1)
-2913.73829329738

>  <r_j_Total_Enthalpy_(au)_298.15K_1.00E+00atm> (1)
-2913.73734911149

>  <r_j_Total_Free_Energy_(au)_298.15K_1.00E+00atm> (1)
-2913.78477703266

>  <r_lp_tautomer_probability> (1)
1

>  <r_epik_Ionization_Penalty> (1)
  0.0000

>  <r_epik_Ionization_Penalty_Charging> (1)
  0.0000

>  <r_epik_Ionization_Penalty_Neutral> (1)
  0.0000

>  <r_epik_State_Penalty> (1)
  0.0000

>  <r_epik_Charging_Adjusted_Penalty> (1)
0

>  <i_epik_Tot_Q> (1)
0

>  <i_epik_Tot_abs_Q> (1)
0

>  <s_lp_Force_Field> (1)
S-OPLS

>  <r_lp_Energy> (1)
15.1764

>  <b_lp_Chiralities_Consistent> (1)
1

$$$$
