69177_p-Methyl-N,N-diethylaniline
                    3D
 Schrodinger Suite 2021-3.
 29 29  0  0  1  0            999 V2000
    0.1181    2.1550    0.0743 C   0  0  0  0  0  0
    0.0174    0.6287   -0.0732 C   0  0  0  0  0  0
    1.2955   -0.0682   -0.1620 N   0  0  0  0  0  0
    1.8899   -0.5587    1.0762 C   0  0  0  0  0  0
    2.8597    0.4160    1.7622 C   0  0  0  0  0  0
    2.0460   -0.0198   -1.3373 C   0  0  0  0  0  0
    1.5405    0.5646   -2.5194 C   0  0  0  0  0  0
    2.2809    0.5681   -3.6993 C   0  0  0  0  0  0
    3.5578    0.0081   -3.7781 C   0  0  0  0  0  0
    4.0649   -0.5627   -2.6049 C   0  0  0  0  0  0
    3.3438   -0.5776   -1.4164 C   0  0  0  0  0  0
    4.3622    0.0189   -5.0566 C   0  0  0  0  0  0
   -0.8790    2.6092    0.0593 H   0  0  0  0  0  0
    0.7045    2.5880   -0.7406 H   0  0  0  0  0  0
    0.6013    2.4275    1.0168 H   0  0  0  0  0  0
   -0.5225    0.2140    0.7842 H   0  0  0  0  0  0
   -0.5874    0.3791   -0.9532 H   0  0  0  0  0  0
    1.0692   -0.7986    1.7601 H   0  0  0  0  0  0
    2.3968   -1.5101    0.8762 H   0  0  0  0  0  0
    3.3141   -0.0502    2.6436 H   0  0  0  0  0  0
    2.3409    1.3225    2.0868 H   0  0  0  0  0  0
    3.6607    0.7142    1.0803 H   0  0  0  0  0  0
    0.5607    1.0250   -2.5317 H   0  0  0  0  0  0
    1.8453    1.0301   -4.5826 H   0  0  0  0  0  0
    5.0587   -1.0059   -2.6138 H   0  0  0  0  0  0
    3.8032   -1.0295   -0.5462 H   0  0  0  0  0  0
    4.5789   -0.9981   -5.4059 H   0  0  0  0  0  0
    5.3270    0.5230   -4.9223 H   0  0  0  0  0  0
    3.8285    0.5362   -5.8597 H   0  0  0  0  0  0
  1  2  1  0  0  0
  1 13  1  0  0  0
  1 14  1  0  0  0
  1 15  1  0  0  0
  2  3  1  0  0  0
  2 16  1  0  0  0
  2 17  1  0  0  0
  3  4  1  0  0  0
  3  6  1  0  0  0
  4  5  1  0  0  0
  4 18  1  0  0  0
  4 19  1  0  0  0
  5 20  1  0  0  0
  5 21  1  0  0  0
  5 22  1  0  0  0
  6 11  1  0  0  0
  6  7  2  0  0  0
  7  8  1  0  0  0
  7 23  1  0  0  0
  8  9  2  0  0  0
  8 24  1  0  0  0
  9 10  1  0  0  0
  9 12  1  0  0  0
 10 11  2  0  0  0
 10 25  1  0  0  0
 11 26  1  0  0  0
 12 27  1  0  0  0
 12 28  1  0  0  0
 12 29  1  0  0  0
M  END
> <i_m_Spin_multiplicity>
1

> <s_j_Task>
Single Point

> <s_j_QM_Method>
DFT(b3lyp-d3)

> <s_j_QM_Basis>
cc-pvtz(-f)

> <i_j_Number_of_canonical_orbitals>
423

> <i_j_Geometry_convergence_category>
3

> <r_j_Gas_Phase_Energy>
-484.341816627259

> <r_j_Final_Energy>
-484.341816627259

> <r_j_HOMO>
-0.175392302472841

> <r_j_LUMO>
0.00918673499004487

> <r_j_Polarizability>
141.825058477502

> <r_j_QM_Dipole_(debye)>
1.64955561805178

> <r_j_QM_Dipole_X_(debye)>
-0.733539535952514

> <r_j_QM_Dipole_Y_(debye)>
0.164317240869011

> <r_j_QM_Dipole_Z_(debye)>
1.46831649537624

> <r_j_Lowest_Frequency_(cm-1)>
72.7196604476686

> <r_j_Highest_Frequency_(cm-1)>
3167.31733947113

> <r_j_2nd_Lowest_Frequency_(cm-1)>
87.5204788894676

> <i_j_Num_Negative_Frequencies>
0

> <r_j_Zero_Point_Energy_(kcal/mol)>
161.520411895164

> <r_j_Entropy_(cal/mol/K)_298.15K_1.00E+00atm>
105.50371045356

> <r_j_Enthalpy_(kcal/mol)_298.15K_1.00E+00atm>
8.16672419956975

> <r_j_Free_Energy_(kcal/mol)_298.15K_1.00E+00atm>
-23.2892070721593

> <r_j_Internal_Energy_(kcal/mol)_298.15K_1.00E+00atm>
7.57423861074248

> <r_j_Heat_Capacity_(cal/mol/K)_298.15K_1.00E+00atm>
47.7206633020527

> <r_j_ln(Q)_298.15K_1.00E+00atm>
39.3076346688134

> <r_j_Total_Internal_Energy_(au)_298.15K_1.00E+00atm>
-484.072347147371

> <r_j_Total_Enthalpy_(au)_298.15K_1.00E+00atm>
-484.071402961478

> <r_j_Total_Free_Energy_(au)_298.15K_1.00E+00atm>
-484.1215311791

> <r_epik_Ionization_Penalty>
  0.3115

> <r_epik_Ionization_Penalty_Charging>
  0.0000

> <r_epik_Ionization_Penalty_Neutral>
  0.3115

> <r_epik_State_Penalty>
  0.3056

> <r_epik_Charging_Adjusted_Penalty>
0.30559182370329

> <i_epik_Tot_Q>
0

> <i_epik_Tot_abs_Q>
0

> <s_lp_Force_Field>
S-OPLS

> <r_lp_Energy>
17.611733

> <b_lp_Chiralities_Consistent>
1

$$$$
