69848_(E)-(1-Methylpropenyl)benzene
                    3D
 Schrodinger Suite 2021-3.
 22 22  0  0  1  0            999 V2000
   -0.0298    0.0156    0.0001 C   0  0  0  0  0  0
    1.4747   -0.0337    0.0002 C   0  0  0  0  0  0
    2.2011   -1.1699    0.0000 C   0  0  0  0  0  0
    1.4426   -2.4860   -0.0003 C   0  0  0  0  0  0
    3.6943   -1.1617    0.0000 C   0  0  0  0  0  0
    4.4292    0.0437   -0.0002 C   0  0  0  0  0  0
    5.8185    0.0571   -0.0002 C   0  0  0  0  0  0
    6.5401   -1.1387    0.0000 C   0  0  0  0  0  0
    5.8409   -2.3416    0.0002 C   0  0  0  0  0  0
    4.4456   -2.3512    0.0002 C   0  0  0  0  0  0
   -0.3933    1.0463    0.0003 H   0  0  0  0  0  0
   -0.4558   -0.4866    0.8790 H   0  0  0  0  0  0
   -0.4557   -0.4862   -0.8791 H   0  0  0  0  0  0
    1.9749    0.9292    0.0004 H   0  0  0  0  0  0
    2.0789   -3.3688   -0.0007 H   0  0  0  0  0  0
    0.7917   -2.5577   -0.8795 H   0  0  0  0  0  0
    0.7920   -2.5582    0.8792 H   0  0  0  0  0  0
    3.9133    0.9968   -0.0004 H   0  0  0  0  0  0
    6.3421    1.0092   -0.0004 H   0  0  0  0  0  0
    7.6259   -1.1287    0.0000 H   0  0  0  0  0  0
    6.3789   -3.2855    0.0004 H   0  0  0  0  0  0
    3.9491   -3.3136    0.0004 H   0  0  0  0  0  0
  1  2  1  0  0  0
  1 11  1  0  0  0
  1 12  1  0  0  0
  1 13  1  0  0  0
  2  3  2  3  0  0
  2 14  1  0  0  0
  3  4  1  0  0  0
  3  5  1  0  0  0
  4 15  1  0  0  0
  4 16  1  0  0  0
  4 17  1  0  0  0
  5 10  1  0  0  0
  5  6  2  0  0  0
  6  7  1  0  0  0
  6 18  1  0  0  0
  7  8  2  0  0  0
  7 19  1  0  0  0
  8  9  1  0  0  0
  8 20  1  0  0  0
  9 10  2  0  0  0
  9 21  1  0  0  0
 10 22  1  0  0  0
M  END
> <i_m_Spin_multiplicity>
1

> <s_j_Task>
Single Point

> <s_j_QM_Method>
DFT(b3lyp-d3)

> <s_j_QM_Basis>
cc-pvtz(-f)

> <i_j_Number_of_canonical_orbitals>
331

> <i_j_Geometry_convergence_category>
0

> <r_j_Gas_Phase_Energy>
-388.41521272341

> <r_j_Final_Energy>
-388.41521272341

> <r_j_HOMO>
-0.222358959309309

> <r_j_LUMO>
-0.0433723648959261

> <r_j_Polarizability>
119.198623049431

> <r_j_QM_Dipole_(debye)>
0.572014721223779

> <r_j_QM_Dipole_X_(debye)>
-0.569626845492853

> <r_j_QM_Dipole_Y_(debye)>
-0.0522120086057182

> <r_j_QM_Dipole_Z_(debye)>
-6.59388737316293e-05

> <r_j_Lowest_Frequency_(cm-1)>
-50.8075257279002

> <r_j_Highest_Frequency_(cm-1)>
3167.81555661599

> <r_j_2nd_Lowest_Frequency_(cm-1)>
131.697289844256

> <i_j_Num_Negative_Frequencies>
1

> <r_j_Zero_Point_Energy_(kcal/mol)>
118.247654700867

> <r_j_Entropy_(cal/mol/K)_298.15K_1.00E+00atm>
90.045138788431

> <r_j_Enthalpy_(kcal/mol)_298.15K_1.00E+00atm>
6.01199291470625

> <r_j_Free_Energy_(kcal/mol)_298.15K_1.00E+00atm>
-20.8349652150644

> <r_j_Internal_Energy_(kcal/mol)_298.15K_1.00E+00atm>
5.41950732587897

> <r_j_Heat_Capacity_(cal/mol/K)_298.15K_1.00E+00atm>
34.677753782442

> <r_j_ln(Q)_298.15K_1.00E+00atm>
35.1653535680146

> <r_j_Total_Internal_Energy_(au)_298.15K_1.00E+00atm>
-388.218136554939

> <r_j_Total_Enthalpy_(au)_298.15K_1.00E+00atm>
-388.217192369047

> <r_j_Total_Free_Energy_(au)_298.15K_1.00E+00atm>
-388.259975720396

> <r_lp_tautomer_probability>
1

> <r_epik_Ionization_Penalty>
  0.0000

> <r_epik_Ionization_Penalty_Charging>
  0.0000

> <r_epik_Ionization_Penalty_Neutral>
  0.0000

> <r_epik_State_Penalty>
  0.0000

> <r_epik_Charging_Adjusted_Penalty>
0

> <i_epik_Tot_Q>
0

> <i_epik_Tot_abs_Q>
0

> <s_lp_Force_Field>
S-OPLS

> <r_lp_Energy>
19.577

> <b_lp_Chiralities_Consistent>
1

$$$$
