7002_1-Methylnaphthalene
                    3D
 Schrodinger Suite 2021-3.
 21 22  0  0  1  0            999 V2000
   -0.0343    0.0308    0.0000 C   0  0  0  0  0  0
    1.4754    0.0066    0.0000 C   0  0  0  0  0  0
    2.1941    1.1848    0.0000 C   0  0  0  0  0  0
    3.6088    1.1944    0.0000 C   0  0  0  0  0  0
    4.3086    0.0129    0.0000 C   0  0  0  0  0  0
    3.6197   -1.2291    0.0000 C   0  0  0  0  0  0
    4.3205   -2.4640    0.0000 C   0  0  0  0  0  0
    3.6462   -3.6631    0.0000 C   0  0  0  0  0  0
    2.2325   -3.6775    0.0000 C   0  0  0  0  0  0
    1.5226   -2.4970    0.0000 C   0  0  0  0  0  0
    2.1848   -1.2388    0.0000 C   0  0  0  0  0  0
   -0.4092    1.0575    0.0000 H   0  0  0  0  0  0
   -0.4453   -0.4756    0.8814 H   0  0  0  0  0  0
   -0.4453   -0.4756   -0.8814 H   0  0  0  0  0  0
    1.6601    2.1315    0.0000 H   0  0  0  0  0  0
    4.1364    2.1437    0.0000 H   0  0  0  0  0  0
    5.3954    0.0105    0.0000 H   0  0  0  0  0  0
    5.4074   -2.4442    0.0000 H   0  0  0  0  0  0
    4.1960   -4.5998    0.0000 H   0  0  0  0  0  0
    1.7043   -4.6267    0.0000 H   0  0  0  0  0  0
    0.4383   -2.5290    0.0000 H   0  0  0  0  0  0
  1  2  1  0  0  0
  1 12  1  0  0  0
  1 13  1  0  0  0
  1 14  1  0  0  0
  2 11  1  0  0  0
  2  3  2  0  0  0
  3  4  1  0  0  0
  3 15  1  0  0  0
  4  5  2  0  0  0
  4 16  1  0  0  0
  5  6  1  0  0  0
  5 17  1  0  0  0
  6 11  1  0  0  0
  6  7  2  0  0  0
  7  8  1  0  0  0
  7 18  1  0  0  0
  8  9  2  0  0  0
  8 19  1  0  0  0
  9 10  1  0  0  0
  9 20  1  0  0  0
 10 11  2  0  0  0
 10 21  1  0  0  0
M  END
>  <i_m_Spin_multiplicity> (1)
1

>  <s_j_Task> (1)
Single Point

>  <s_j_QM_Method> (1)
DFT(b3lyp-d3)

>  <s_j_QM_Basis> (1)
cc-pvtz(-f)

>  <i_j_Number_of_canonical_orbitals> (1)
335

>  <i_j_Geometry_convergence_category> (1)
0

>  <r_j_Gas_Phase_Energy> (1)
-425.353947139593

>  <r_j_Final_Energy> (1)
-425.353947139593

>  <r_j_HOMO> (1)
-0.224662571325176

>  <r_j_LUMO> (1)
-0.0541546870359242

>  <r_j_Polarizability> (1)
124.832788552425

>  <r_j_QM_Dipole_(debye)> (1)
0.338416001077166

>  <r_j_QM_Dipole_X_(debye)> (1)
-0.336858918885433

>  <r_j_QM_Dipole_Y_(debye)> (1)
0.0324262016265824

>  <r_j_QM_Dipole_Z_(debye)> (1)
-6.85614070338815e-07

>  <r_j_Lowest_Frequency_(cm-1)> (1)
149.270931880064

>  <r_j_Highest_Frequency_(cm-1)> (1)
3154.25186438597

>  <r_j_2nd_Lowest_Frequency_(cm-1)> (1)
192.008829153516

>  <i_j_Num_Negative_Frequencies> (1)
0

>  <r_j_Zero_Point_Energy_(kcal/mol)> (1)
109.488031803487

>  <r_j_Entropy_(cal/mol/K)_298.15K_1.00E+00atm> (1)
87.6783316054419

>  <r_j_Enthalpy_(kcal/mol)_298.15K_1.00E+00atm> (1)
5.68280285107125

>  <r_j_Free_Energy_(kcal/mol)_298.15K_1.00E+00atm> (1)
-20.4584917170912

>  <r_j_Internal_Energy_(kcal/mol)_298.15K_1.00E+00atm> (1)
5.09031726224398

>  <r_j_Heat_Capacity_(cal/mol/K)_298.15K_1.00E+00atm> (1)
34.2347393467876

>  <r_j_ln(Q)_298.15K_1.00E+00atm> (1)
34.5299398042497

>  <r_j_Total_Internal_Energy_(au)_298.15K_1.00E+00atm> (1)
-425.171354916617

>  <r_j_Total_Enthalpy_(au)_298.15K_1.00E+00atm> (1)
-425.170410730725

>  <r_j_Total_Free_Energy_(au)_298.15K_1.00E+00atm> (1)
-425.2120695356

>  <r_lp_tautomer_probability> (1)
1

>  <r_epik_Ionization_Penalty> (1)
  0.0000

>  <r_epik_Ionization_Penalty_Charging> (1)
  0.0000

>  <r_epik_Ionization_Penalty_Neutral> (1)
  0.0000

>  <r_epik_State_Penalty> (1)
  0.0000

>  <r_epik_Charging_Adjusted_Penalty> (1)
0

>  <i_epik_Tot_Q> (1)
0

>  <i_epik_Tot_abs_Q> (1)
0

>  <s_lp_Force_Field> (1)
S-OPLS

>  <r_lp_Energy> (1)
20.2988

>  <b_lp_Chiralities_Consistent> (1)
1

$$$$
