7005_Naphthol
                    3D
 Schrodinger Suite 2021-3.
 19 20  0  0  1  0            999 V2000
   -2.1133    3.6477    0.0000 C   0  0  0  0  0  0
   -0.6985    3.6576    0.0000 C   0  0  0  0  0  0
    0.0043    2.4738    0.0000 C   0  0  0  0  0  0
   -0.6804    1.2314    0.0000 C   0  0  0  0  0  0
   -2.1119    1.2128    0.0000 C   0  0  0  0  0  0
   -2.8004    2.4553    0.0000 C   0  0  0  0  0  0
   -2.7980   -0.0318    0.0000 C   0  0  0  0  0  0
   -2.0915   -1.2111    0.0000 C   0  0  0  0  0  0
   -0.6777   -1.2095    0.0000 C   0  0  0  0  0  0
    0.0144   -0.0161    0.0000 C   0  0  0  0  0  0
    1.3805    0.0520    0.0000 O   0  0  0  0  0  0
   -2.6573    4.5880    0.0000 H   0  0  0  0  0  0
   -0.1669    4.6046    0.0000 H   0  0  0  0  0  0
    1.0884    2.4719    0.0000 H   0  0  0  0  0  0
   -3.8873    2.4469    0.0000 H   0  0  0  0  0  0
   -3.8840   -0.0360    0.0000 H   0  0  0  0  0  0
   -2.6162   -2.1618    0.0000 H   0  0  0  0  0  0
   -0.1323   -2.1507    0.0000 H   0  0  0  0  0  0
    1.7411   -0.8441    0.0000 H   0  0  0  0  0  0
  1  6  1  0  0  0
  1  2  2  0  0  0
  1 12  1  0  0  0
  2  3  1  0  0  0
  2 13  1  0  0  0
  3  4  2  0  0  0
  3 14  1  0  0  0
  4 10  1  0  0  0
  4  5  1  0  0  0
  5  6  2  0  0  0
  5  7  1  0  0  0
  6 15  1  0  0  0
  7  8  2  0  0  0
  7 16  1  0  0  0
  8  9  1  0  0  0
  8 17  1  0  0  0
  9 10  2  0  0  0
  9 18  1  0  0  0
 10 11  1  0  0  0
 11 19  1  0  0  0
M  END
>  <i_m_Spin_multiplicity> (1)
1

>  <s_j_Task> (1)
Single Point

>  <s_j_QM_Method> (1)
DFT(b3lyp-d3)

>  <s_j_QM_Basis> (1)
cc-pvtz(-f)

>  <i_j_Number_of_canonical_orbitals> (1)
318

>  <i_j_Geometry_convergence_category> (1)
0

>  <r_j_Gas_Phase_Energy> (1)
-461.273283900598

>  <r_j_Final_Energy> (1)
-461.273283900598

>  <r_j_HOMO> (1)
-0.204285949643208

>  <r_j_LUMO> (1)
-0.0347861678692507

>  <r_j_Polarizability> (1)
116.480542179419

>  <r_j_QM_Dipole_(debye)> (1)
1.236361865088

>  <r_j_QM_Dipole_X_(debye)> (1)
0.320274954119969

>  <r_j_QM_Dipole_Y_(debye)> (1)
-1.19415853854365

>  <r_j_QM_Dipole_Z_(debye)> (1)
5.53326199706459e-06

>  <r_j_Lowest_Frequency_(cm-1)> (1)
151.823433143848

>  <r_j_Highest_Frequency_(cm-1)> (1)
3773.77431300306

>  <r_j_2nd_Lowest_Frequency_(cm-1)> (1)
191.65384427449

>  <i_j_Num_Negative_Frequencies> (1)
0

>  <r_j_Zero_Point_Energy_(kcal/mol)> (1)
94.7919788833312

>  <r_j_Entropy_(cal/mol/K)_298.15K_1.00E+00atm> (1)
86.5404515194595

>  <r_j_Enthalpy_(kcal/mol)_298.15K_1.00E+00atm> (1)
5.49180408612262

>  <r_j_Free_Energy_(kcal/mol)_298.15K_1.00E+00atm> (1)
-20.3102315344042

>  <r_j_Internal_Energy_(kcal/mol)_298.15K_1.00E+00atm> (1)
4.89931849729534

>  <r_j_Heat_Capacity_(cal/mol/K)_298.15K_1.00E+00atm> (1)
33.0079239410351

>  <r_j_ln(Q)_298.15K_1.00E+00atm> (1)
34.2797055614549

>  <r_j_Total_Internal_Energy_(au)_298.15K_1.00E+00atm> (1)
-461.114415704743

>  <r_j_Total_Enthalpy_(au)_298.15K_1.00E+00atm> (1)
-461.113471518851

>  <r_j_Total_Free_Energy_(au)_298.15K_1.00E+00atm> (1)
-461.154589680176

>  <r_epik_Ionization_Penalty> (1)
  0.0033

>  <r_epik_Ionization_Penalty_Charging> (1)
  0.0000

>  <r_epik_Ionization_Penalty_Neutral> (1)
  0.0033

>  <r_epik_State_Penalty> (1)
  0.0023

>  <r_epik_Charging_Adjusted_Penalty> (1)
0.00232381

>  <i_epik_Tot_Q> (1)
0

>  <i_epik_Tot_abs_Q> (1)
0

>  <s_lp_Force_Field> (1)
S-OPLS

>  <r_lp_Energy> (1)
18.6099

>  <b_lp_Chiralities_Consistent> (1)
1

$$$$
