700_Ethanolamine
                    3D
 Schrodinger Suite 2021-3.
 11 10  0  0  1  0            999 V2000
    0.0144    0.0499    0.0016 C   0  0  0  0  0  0
    1.5379    0.0250    0.0210 C   0  0  0  0  0  0
    1.9952    0.5489    1.2577 O   0  0  0  0  0  0
   -0.5038    1.4174   -0.0559 N   0  0  0  0  0  0
   -0.3176   -0.6016   -0.8288 H   0  0  0  0  0  0
   -0.3377   -0.4129    0.9306 H   0  0  0  0  0  0
    1.8702   -1.0174   -0.1249 H   0  0  0  0  0  0
    1.9198    0.6085   -0.8358 H   0  0  0  0  0  0
    2.9579    0.6061    1.2205 H   0  0  0  0  0  0
   -0.3152    1.8189   -0.9721 H   0  0  0  0  0  0
   -1.5146    1.4105    0.0503 H   0  0  0  0  0  0
  1  2  1  0  0  0
  1  4  1  0  0  0
  1  5  1  0  0  0
  1  6  1  0  0  0
  2  3  1  0  0  0
  2  7  1  0  0  0
  2  8  1  0  0  0
  3  9  1  0  0  0
  4 10  1  0  0  0
  4 11  1  0  0  0
M  END
>  <i_m_Spin_multiplicity> (1)
1

>  <s_j_Task> (1)
Single Point

>  <s_j_QM_Method> (1)
DFT(b3lyp-d3)

>  <s_j_QM_Basis> (1)
cc-pvtz(-f)

>  <i_j_Number_of_canonical_orbitals> (1)
155

>  <i_j_Geometry_convergence_category> (1)
0

>  <r_j_Gas_Phase_Energy> (1)
-210.468740636832

>  <r_j_Final_Energy> (1)
-210.468740636832

>  <r_j_HOMO> (1)
-0.232383464080316

>  <r_j_LUMO> (1)
0.0295455339443119

>  <r_j_Polarizability> (1)
39.0427619904543

>  <r_j_QM_Dipole_(debye)> (1)
2.18091626169479

>  <r_j_QM_Dipole_X_(debye)> (1)
0.298442453357448

>  <r_j_QM_Dipole_Y_(debye)> (1)
-0.890782066779057

>  <r_j_QM_Dipole_Z_(debye)> (1)
-1.9682060745927

>  <r_j_Lowest_Frequency_(cm-1)> (1)
169.184512244624

>  <r_j_Highest_Frequency_(cm-1)> (1)
3775.97920064897

>  <r_j_2nd_Lowest_Frequency_(cm-1)> (1)
275.403400657056

>  <i_j_Num_Negative_Frequencies> (1)
0

>  <r_j_Zero_Point_Energy_(kcal/mol)> (1)
61.128402663483

>  <r_j_Entropy_(cal/mol/K)_298.15K_1.00E+00atm> (1)
70.5330715293815

>  <r_j_Enthalpy_(kcal/mol)_298.15K_1.00E+00atm> (1)
3.85056013399502

>  <r_j_Free_Energy_(kcal/mol)_298.15K_1.00E+00atm> (1)
-17.1788751424901

>  <r_j_Internal_Energy_(kcal/mol)_298.15K_1.00E+00atm> (1)
3.25807454516775

>  <r_j_Heat_Capacity_(cal/mol/K)_298.15K_1.00E+00atm> (1)
17.4364921028923

>  <r_j_ln(Q)_298.15K_1.00E+00atm> (1)
28.9945873223562

>  <r_j_Total_Internal_Energy_(au)_298.15K_1.00E+00atm> (1)
-210.366134253524

>  <r_j_Total_Enthalpy_(au)_298.15K_1.00E+00atm> (1)
-210.365190067631

>  <r_j_Total_Free_Energy_(au)_298.15K_1.00E+00atm> (1)
-210.398702606138

>  <r_epik_Ionization_Penalty> (1)
  2.5226

>  <r_epik_Ionization_Penalty_Charging> (1)
  0.0000

>  <r_epik_Ionization_Penalty_Neutral> (1)
  2.5226

>  <r_epik_State_Penalty> (1)
  2.6892

>  <r_epik_Charging_Adjusted_Penalty> (1)
2.68916

>  <i_epik_Tot_Q> (1)
0

>  <i_epik_Tot_abs_Q> (1)
0

>  <s_lp_Force_Field> (1)
S-OPLS

>  <r_lp_Energy> (1)
2.40245

>  <b_lp_Chiralities_Consistent> (1)
1

$$$$
