70145_1,2,3-trimethylnaphthalene
                    3D
 Schrodinger Suite 2021-3.
 27 28  0  0  1  0            999 V2000
   -0.0062    0.0366    0.0000 C   0  0  0  0  0  0
    1.5044    0.0080    0.0000 C   0  0  0  0  0  0
    2.2056    1.1889    0.0001 C   0  0  0  0  0  0
    3.6219    1.2127    0.0000 C   0  0  0  0  0  0
    4.3413    2.4359    0.0001 C   0  0  0  0  0  0
    5.7169    2.4487    0.0000 C   0  0  0  0  0  0
    6.4274    1.2278   -0.0001 C   0  0  0  0  0  0
    5.7536    0.0259   -0.0001 C   0  0  0  0  0  0
    4.3315   -0.0270    0.0000 C   0  0  0  0  0  0
    3.5988   -1.2651    0.0000 C   0  0  0  0  0  0
    2.2084   -1.2462    0.0000 C   0  0  0  0  0  0
    1.3582   -2.4990   -0.0002 C   0  0  0  0  0  0
    4.4080   -2.5458    0.0002 C   0  0  0  0  0  0
   -0.3762    1.0651    0.0001 H   0  0  0  0  0  0
   -0.4238   -0.4683    0.8793 H   0  0  0  0  0  0
   -0.4238   -0.4681   -0.8795 H   0  0  0  0  0  0
    1.6706    2.1359    0.0001 H   0  0  0  0  0  0
    3.7812    3.3674    0.0001 H   0  0  0  0  0  0
    6.2572    3.3910    0.0001 H   0  0  0  0  0  0
    7.5138    1.2370   -0.0001 H   0  0  0  0  0  0
    6.3271   -0.8934   -0.0002 H   0  0  0  0  0  0
    1.9390   -3.4190   -0.0003 H   0  0  0  0  0  0
    0.7030   -2.5282   -0.8788 H   0  0  0  0  0  0
    0.7030   -2.5285    0.8785 H   0  0  0  0  0  0
    3.7947   -3.4447    0.0010 H   0  0  0  0  0  0
    5.0588   -2.5974    0.8808 H   0  0  0  0  0  0
    5.0579   -2.5982   -0.8810 H   0  0  0  0  0  0
  1  2  1  0  0  0
  1 14  1  0  0  0
  1 15  1  0  0  0
  1 16  1  0  0  0
  2 11  1  0  0  0
  2  3  2  0  0  0
  3  4  1  0  0  0
  3 17  1  0  0  0
  4  9  1  0  0  0
  4  5  2  0  0  0
  5  6  1  0  0  0
  5 18  1  0  0  0
  6  7  2  0  0  0
  6 19  1  0  0  0
  7  8  1  0  0  0
  7 20  1  0  0  0
  8  9  2  0  0  0
  8 21  1  0  0  0
  9 10  1  0  0  0
 10 11  2  0  0  0
 10 13  1  0  0  0
 11 12  1  0  0  0
 12 22  1  0  0  0
 12 23  1  0  0  0
 12 24  1  0  0  0
 13 25  1  0  0  0
 13 26  1  0  0  0
 13 27  1  0  0  0
M  END
>  <i_m_Spin_multiplicity> (1)
1

>  <s_j_Task> (1)
Single Point

>  <s_j_QM_Method> (1)
DFT(b3lyp-d3)

>  <s_j_QM_Basis> (1)
cc-pvtz(-f)

>  <i_j_Number_of_canonical_orbitals> (1)
414

>  <i_j_Geometry_convergence_category> (1)
3

>  <r_j_Gas_Phase_Energy> (1)
-504.014433397367

>  <r_j_Final_Energy> (1)
-504.014433397367

>  <r_j_HOMO> (1)
-0.210214342480487

>  <r_j_LUMO> (1)
-0.0391675331922766

>  <r_j_Polarizability> (1)
153.876489922466

>  <r_j_QM_Dipole_(debye)> (1)
0.947935578025139

>  <r_j_QM_Dipole_X_(debye)> (1)
-0.61546191216151

>  <r_j_QM_Dipole_Y_(debye)> (1)
-0.720963586994653

>  <r_j_QM_Dipole_Z_(debye)> (1)
-3.14985051160799e-05

>  <r_j_Lowest_Frequency_(cm-1)> (1)
103.166503247057

>  <r_j_Highest_Frequency_(cm-1)> (1)
3163.81831318989

>  <r_j_2nd_Lowest_Frequency_(cm-1)> (1)
123.046901951785

>  <i_j_Num_Negative_Frequencies> (1)
0

>  <r_j_Zero_Point_Energy_(kcal/mol)> (1)
144.33377421826

>  <r_j_Entropy_(cal/mol/K)_298.15K_1.00E+00atm> (1)
100.647935707885

>  <r_j_Enthalpy_(kcal/mol)_298.15K_1.00E+00atm> (1)
7.53484651502336

>  <r_j_Free_Energy_(kcal/mol)_298.15K_1.00E+00atm> (1)
-22.4733355162826

>  <r_j_Internal_Energy_(kcal/mol)_298.15K_1.00E+00atm> (1)
6.94236092619608

>  <r_j_Heat_Capacity_(cal/mol/K)_298.15K_1.00E+00atm> (1)
45.7364275145613

>  <r_j_ln(Q)_298.15K_1.00E+00atm> (1)
37.9306027691995

>  <r_j_Total_Internal_Energy_(au)_298.15K_1.00E+00atm> (1)
-503.77335952936

>  <r_j_Total_Enthalpy_(au)_298.15K_1.00E+00atm> (1)
-503.772415343467

>  <r_j_Total_Free_Energy_(au)_298.15K_1.00E+00atm> (1)
-503.820236425803

>  <r_lp_tautomer_probability> (1)
1

>  <r_epik_Ionization_Penalty> (1)
  0.0000

>  <r_epik_Ionization_Penalty_Charging> (1)
  0.0000

>  <r_epik_Ionization_Penalty_Neutral> (1)
  0.0000

>  <r_epik_State_Penalty> (1)
  0.0000

>  <r_epik_Charging_Adjusted_Penalty> (1)
0

>  <i_epik_Tot_Q> (1)
0

>  <i_epik_Tot_abs_Q> (1)
0

>  <s_lp_Force_Field> (1)
S-OPLS

>  <r_lp_Energy> (1)
22.2171

>  <b_lp_Chiralities_Consistent> (1)
1

$$$$
