7017_Biphenylol
                    3D
 Schrodinger Suite 2021-3.
 23 24  0  0  1  0            999 V2000
   -2.8047    0.0001   -0.0073 C   0  0  0  0  0  0
   -2.1043   -1.2067    0.0001 C   0  0  0  0  0  0
   -0.7098   -1.2062    0.0146 C   0  0  0  0  0  0
    0.0014   -0.0001    0.0202 C   0  0  0  0  0  0
   -0.7097    1.2061    0.0146 C   0  0  0  0  0  0
   -2.1042    1.2068    0.0000 C   0  0  0  0  0  0
    1.4939    0.0000    0.0170 C   0  0  0  0  0  0
    2.2103    0.0000   -1.1836 C   0  0  0  0  0  0
    3.6057    0.0001   -1.2024 C   0  0  0  0  0  0
    4.3047    0.0001    0.0035 C   0  0  0  0  0  0
    3.6137    0.0001    1.2138 C   0  0  0  0  0  0
    2.2153   -0.0001    1.2237 C   0  0  0  0  0  0
    1.4943   -0.0002    2.3862 O   0  0  0  0  0  0
   -3.8909    0.0001   -0.0183 H   0  0  0  0  0  0
   -2.6439   -2.1496   -0.0050 H   0  0  0  0  0  0
   -0.1621   -2.1441    0.0223 H   0  0  0  0  0  0
   -0.1620    2.1440    0.0221 H   0  0  0  0  0  0
   -2.6437    2.1498   -0.0051 H   0  0  0  0  0  0
    1.6517    0.0000   -2.1153 H   0  0  0  0  0  0
    4.1390    0.0001   -2.1477 H   0  0  0  0  0  0
    5.3908    0.0002    0.0081 H   0  0  0  0  0  0
    4.1566    0.0001    2.1571 H   0  0  0  0  0  0
    2.1047   -0.0001    3.1349 H   0  0  0  0  0  0
  1  6  1  0  0  0
  1  2  2  0  0  0
  1 14  1  0  0  0
  2  3  1  0  0  0
  2 15  1  0  0  0
  3  4  2  0  0  0
  3 16  1  0  0  0
  4  5  1  0  0  0
  4  7  1  0  0  0
  5  6  2  0  0  0
  5 17  1  0  0  0
  6 18  1  0  0  0
  7 12  1  0  0  0
  7  8  2  0  0  0
  8  9  1  0  0  0
  8 19  1  0  0  0
  9 10  2  0  0  0
  9 20  1  0  0  0
 10 11  1  0  0  0
 10 21  1  0  0  0
 11 12  2  0  0  0
 11 22  1  0  0  0
 12 13  1  0  0  0
 13 23  1  0  0  0
M  END
>  <i_m_Spin_multiplicity> (1)
1

>  <s_j_Task> (1)
Single Point

>  <s_j_QM_Method> (1)
DFT(b3lyp-d3)

>  <s_j_QM_Basis> (1)
cc-pvtz(-f)

>  <i_j_Number_of_canonical_orbitals> (1)
380

>  <i_j_Geometry_convergence_category> (1)
0

>  <r_j_Gas_Phase_Energy> (1)
-538.709740564163

>  <r_j_Final_Energy> (1)
-538.709740564163

>  <r_j_HOMO> (1)
-0.230808911783939

>  <r_j_LUMO> (1)
-0.0197467820610196

>  <r_j_Polarizability> (1)
135.18461180648

>  <r_j_QM_Dipole_(debye)> (1)
1.37059520814939

>  <r_j_QM_Dipole_X_(debye)> (1)
1.07571483603437

>  <r_j_QM_Dipole_Y_(debye)> (1)
0.000207066147763377

>  <r_j_QM_Dipole_Z_(debye)> (1)
0.849334311835581

>  <r_j_Lowest_Frequency_(cm-1)> (1)
45.5857829361263

>  <r_j_Highest_Frequency_(cm-1)> (1)
3771.42521746806

>  <r_j_2nd_Lowest_Frequency_(cm-1)> (1)
100.777254373346

>  <i_j_Num_Negative_Frequencies> (1)
0

>  <r_j_Zero_Point_Energy_(kcal/mol)> (1)
115.850755185966

>  <r_j_Entropy_(cal/mol/K)_298.15K_1.00E+00atm> (1)
97.2728411315601

>  <r_j_Enthalpy_(kcal/mol)_298.15K_1.00E+00atm> (1)
6.7870187705058

>  <r_j_Free_Energy_(kcal/mol)_298.15K_1.00E+00atm> (1)
-22.2148788128688

>  <r_j_Internal_Energy_(kcal/mol)_298.15K_1.00E+00atm> (1)
6.19453318167853

>  <r_j_Heat_Capacity_(cal/mol/K)_298.15K_1.00E+00atm> (1)
40.5365238960084

>  <r_j_ln(Q)_298.15K_1.00E+00atm> (1)
37.4943783136387

>  <r_j_Total_Internal_Energy_(au)_298.15K_1.00E+00atm> (1)
-538.515249015904

>  <r_j_Total_Enthalpy_(au)_298.15K_1.00E+00atm> (1)
-538.514304830011

>  <r_j_Total_Free_Energy_(au)_298.15K_1.00E+00atm> (1)
-538.560522295994

>  <r_lp_tautomer_probability> (1)
1

>  <r_epik_Ionization_Penalty> (1)
  0.0009

>  <r_epik_Ionization_Penalty_Charging> (1)
  0.0000

>  <r_epik_Ionization_Penalty_Neutral> (1)
  0.0009

>  <r_epik_State_Penalty> (1)
  0.0006

>  <r_epik_Charging_Adjusted_Penalty> (1)
0.000579828

>  <i_epik_Tot_Q> (1)
0

>  <i_epik_Tot_abs_Q> (1)
0

>  <s_lp_Force_Field> (1)
S-OPLS

>  <r_lp_Energy> (1)
25.9475

>  <b_lp_Chiralities_Consistent> (1)
1

$$$$
