7018_Anthrone
                    3D
 Schrodinger Suite 2021-3.
 25 27  0  0  1  0            999 V2000
    0.0674    5.3594    0.2499 C   0  0  0  0  0  0
   -1.2502    6.0233    0.5643 C   0  0  0  0  0  0
   -1.2908    7.4080    0.7718 C   0  0  0  0  0  0
   -2.4891    8.0504    1.0636 C   0  0  0  0  0  0
   -3.6779    7.3162    1.1540 C   0  0  0  0  0  0
   -3.6517    5.9450    0.9507 C   0  0  0  0  0  0
   -2.4446    5.2905    0.6558 C   0  0  0  0  0  0
   -2.4714    3.8171    0.4467 C   0  0  0  0  0  0
   -3.5190    3.1803    0.5281 O   0  0  0  0  0  0
   -1.1801    3.1449    0.1350 C   0  0  0  0  0  0
   -1.1842    1.7548   -0.0662 C   0  0  0  0  0  0
   -0.0080    1.0819   -0.3592 C   0  0  0  0  0  0
    1.1914    1.7981   -0.4540 C   0  0  0  0  0  0
    1.2018    3.1745   -0.2557 C   0  0  0  0  0  0
    0.0205    3.8664    0.0407 C   0  0  0  0  0  0
    0.7796    5.5831    1.0569 H   0  0  0  0  0  0
    0.4982    5.8304   -0.6452 H   0  0  0  0  0  0
   -0.3703    7.9827    0.7027 H   0  0  0  0  0  0
   -2.5000    9.1251    1.2214 H   0  0  0  0  0  0
   -4.6136    7.8179    1.3818 H   0  0  0  0  0  0
   -4.5520    5.3429    1.0124 H   0  0  0  0  0  0
   -2.1325    1.2343    0.0155 H   0  0  0  0  0  0
   -0.0162    0.0072   -0.5141 H   0  0  0  0  0  0
    2.1180    1.2794   -0.6833 H   0  0  0  0  0  0
    2.1361    3.7258   -0.3305 H   0  0  0  0  0  0
  1 15  1  0  0  0
  1  2  1  0  0  0
  1 16  1  0  0  0
  1 17  1  0  0  0
  2  7  1  0  0  0
  2  3  2  0  0  0
  3  4  1  0  0  0
  3 18  1  0  0  0
  4  5  2  0  0  0
  4 19  1  0  0  0
  5  6  1  0  0  0
  5 20  1  0  0  0
  6  7  2  0  0  0
  6 21  1  0  0  0
  7  8  1  0  0  0
  8  9  2  0  0  0
  8 10  1  0  0  0
 10 15  1  0  0  0
 10 11  2  0  0  0
 11 12  1  0  0  0
 11 22  1  0  0  0
 12 13  2  0  0  0
 12 23  1  0  0  0
 13 14  1  0  0  0
 13 24  1  0  0  0
 14 15  2  0  0  0
 14 25  1  0  0  0
M  END
>  <i_m_Spin_multiplicity> (1)
1

>  <s_j_Task> (1)
Single Point

>  <s_j_QM_Method> (1)
DFT(b3lyp-d3)

>  <s_j_QM_Basis> (1)
cc-pvtz(-f)

>  <i_j_Number_of_canonical_orbitals> (1)
424

>  <i_j_Geometry_convergence_category> (1)
0

>  <r_j_Gas_Phase_Energy> (1)
-614.965496641651

>  <r_j_Final_Energy> (1)
-614.965496641651

>  <r_j_HOMO> (1)
-0.228241631904299

>  <r_j_LUMO> (1)
-0.0527937872179144

>  <r_j_Polarizability> (1)
157.692411948536

>  <r_j_QM_Dipole_(debye)> (1)
3.71816457430733

>  <r_j_QM_Dipole_X_(debye)> (1)
3.16972970991962

>  <r_j_QM_Dipole_Y_(debye)> (1)
1.92796858380665

>  <r_j_QM_Dipole_Z_(debye)> (1)
-0.245964443652837

>  <r_j_Lowest_Frequency_(cm-1)> (1)
67.0799212684883

>  <r_j_Highest_Frequency_(cm-1)> (1)
3160.65866752474

>  <r_j_2nd_Lowest_Frequency_(cm-1)> (1)
130.007324007298

>  <i_j_Num_Negative_Frequencies> (1)
0

>  <r_j_Zero_Point_Energy_(kcal/mol)> (1)
124.028810959558

>  <r_j_Entropy_(cal/mol/K)_298.15K_1.00E+00atm> (1)
99.1030687031474

>  <r_j_Enthalpy_(kcal/mol)_298.15K_1.00E+00atm> (1)
7.06762794991281

>  <r_j_Free_Energy_(kcal/mol)_298.15K_1.00E+00atm> (1)
-22.4799519839306

>  <r_j_Internal_Energy_(kcal/mol)_298.15K_1.00E+00atm> (1)
6.47514236108554

>  <r_j_Heat_Capacity_(cal/mol/K)_298.15K_1.00E+00atm> (1)
43.5018006505133

>  <r_j_ln(Q)_298.15K_1.00E+00atm> (1)
37.941770074823

>  <r_j_Total_Internal_Energy_(au)_298.15K_1.00E+00atm> (1)
-614.757525352675

>  <r_j_Total_Enthalpy_(au)_298.15K_1.00E+00atm> (1)
-614.756581166783

>  <r_j_Total_Free_Energy_(au)_298.15K_1.00E+00atm> (1)
-614.803668232949

>  <r_lp_tautomer_probability> (1)
1

>  <r_epik_Ionization_Penalty> (1)
  0.0000

>  <r_epik_Ionization_Penalty_Charging> (1)
  0.0000

>  <r_epik_Ionization_Penalty_Neutral> (1)
  0.0000

>  <r_epik_State_Penalty> (1)
  0.0000

>  <r_epik_Charging_Adjusted_Penalty> (1)
0

>  <i_epik_Tot_Q> (1)
0

>  <i_epik_Tot_abs_Q> (1)
0

>  <s_lp_Force_Field> (1)
S-OPLS

>  <r_lp_Energy> (1)
25.0067

>  <b_lp_Chiralities_Consistent> (1)
1

$$$$
