70382_9-nitrophenanthrene
                    3D
 Schrodinger Suite 2021-3.
 26 28  0  0  1  0            999 V2000
   -4.1465    2.5004   -0.0001 C   0  0  0  0  0  0
   -4.8772    1.2972   -0.0001 C   0  0  0  0  0  0
   -4.2304    0.0755    0.0000 C   0  0  0  0  0  0
   -2.8184   -0.0085    0.0001 C   0  0  0  0  0  0
   -2.0894    1.2121    0.0001 C   0  0  0  0  0  0
   -2.7694    2.4538    0.0000 C   0  0  0  0  0  0
   -0.6687    1.1769    0.0001 C   0  0  0  0  0  0
    0.0229    0.0010    0.0000 C   0  0  0  0  0  0
   -0.6502   -1.2860    0.0000 C   0  0  0  0  0  0
    0.0066   -2.5426   -0.0001 C   0  0  0  0  0  0
   -0.7064   -3.7252   -0.0002 C   0  0  0  0  0  0
   -2.1079   -3.7104    0.0000 C   0  0  0  0  0  0
   -2.7751   -2.5032    0.0001 C   0  0  0  0  0  0
   -2.0863   -1.2681    0.0001 C   0  0  0  0  0  0
    1.4979    0.1574    0.0000 N   0  3  1  0  0  0
    2.2147   -0.8446   -0.0002 O   0  0  0  0  0  0
    1.9519    1.3038    0.0002 O   0  5  0  0  0  0
   -4.6653    3.4536   -0.0003 H   0  0  0  0  0  0
   -5.9627    1.3266   -0.0002 H   0  0  0  0  0  0
   -4.8321   -0.8246    0.0000 H   0  0  0  0  0  0
   -2.1839    3.3685   -0.0001 H   0  0  0  0  0  0
   -0.1142    2.1067    0.0001 H   0  0  0  0  0  0
    1.0831   -2.5701   -0.0003 H   0  0  0  0  0  0
   -0.1706   -4.6696   -0.0003 H   0  0  0  0  0  0
   -2.6680   -4.6405    0.0000 H   0  0  0  0  0  0
   -3.8580   -2.5118    0.0003 H   0  0  0  0  0  0
  1  6  1  0  0  0
  1  2  2  0  0  0
  1 18  1  0  0  0
  2  3  1  0  0  0
  2 19  1  0  0  0
  3  4  2  0  0  0
  3 20  1  0  0  0
  4 14  1  0  0  0
  4  5  1  0  0  0
  5  6  2  0  0  0
  5  7  1  0  0  0
  6 21  1  0  0  0
  7  8  2  0  0  0
  7 22  1  0  0  0
  8  9  1  0  0  0
  8 15  1  0  0  0
  9 14  1  0  0  0
  9 10  2  0  0  0
 10 11  1  0  0  0
 10 23  1  0  0  0
 11 12  2  0  0  0
 11 24  1  0  0  0
 12 13  1  0  0  0
 12 25  1  0  0  0
 13 14  2  0  0  0
 13 26  1  0  0  0
 15 16  2  0  0  0
 15 17  1  0  0  0
M  END
>  <i_m_Spin_multiplicity> (1)
1

>  <s_j_Task> (1)
Single Point

>  <s_j_QM_Method> (1)
DFT(b3lyp-d3)

>  <s_j_QM_Basis> (1)
cc-pvtz(-f)

>  <i_j_Number_of_canonical_orbitals> (1)
458

>  <i_j_Geometry_convergence_category> (1)
0

>  <r_j_Gas_Phase_Energy> (1)
-744.281737712478

>  <r_j_Final_Energy> (1)
-744.281737712478

>  <r_j_HOMO> (1)
-0.246338817610447

>  <r_j_LUMO> (1)
-0.104251551737234

>  <r_j_Polarizability> (1)
183.605457192973

>  <r_j_QM_Dipole_(debye)> (1)
5.1963371315478

>  <r_j_QM_Dipole_X_(debye)> (1)
-5.18485654984822

>  <r_j_QM_Dipole_Y_(debye)> (1)
-0.345227527442307

>  <r_j_QM_Dipole_Z_(debye)> (1)
-0.000310635621978278

>  <r_j_Lowest_Frequency_(cm-1)> (1)
45.226589155928

>  <r_j_Highest_Frequency_(cm-1)> (1)
3241.70384781129

>  <r_j_2nd_Lowest_Frequency_(cm-1)> (1)
88.5705531656043

>  <i_j_Num_Negative_Frequencies> (1)
0

>  <r_j_Zero_Point_Energy_(kcal/mol)> (1)
123.096393669327

>  <r_j_Entropy_(cal/mol/K)_298.15K_1.00E+00atm> (1)
106.218733427626

>  <r_j_Enthalpy_(kcal/mol)_298.15K_1.00E+00atm> (1)
7.9247885186995

>  <r_j_Free_Energy_(kcal/mol)_298.15K_1.00E+00atm> (1)
-23.7443268527473

>  <r_j_Internal_Energy_(kcal/mol)_298.15K_1.00E+00atm> (1)
7.33230292987223

>  <r_j_Heat_Capacity_(cal/mol/K)_298.15K_1.00E+00atm> (1)
48.5620760480689

>  <r_j_ln(Q)_298.15K_1.00E+00atm> (1)
40.0757880031229

>  <r_j_Total_Internal_Energy_(au)_298.15K_1.00E+00atm> (1)
-744.073886352722

>  <r_j_Total_Enthalpy_(au)_298.15K_1.00E+00atm> (1)
-744.07294216683

>  <r_j_Total_Free_Energy_(au)_298.15K_1.00E+00atm> (1)
-744.123410114942

>  <r_lp_tautomer_probability> (1)
1

>  <r_epik_Ionization_Penalty> (1)
  0.0000

>  <r_epik_Ionization_Penalty_Charging> (1)
  0.0000

>  <r_epik_Ionization_Penalty_Neutral> (1)
  0.0000

>  <r_epik_State_Penalty> (1)
  0.0000

>  <r_epik_Charging_Adjusted_Penalty> (1)
0

>  <i_epik_Tot_Q> (1)
0

>  <i_epik_Tot_abs_Q> (1)
2

>  <s_lp_Force_Field> (1)
S-OPLS

>  <r_lp_Energy> (1)
41.7223

>  <b_lp_Chiralities_Consistent> (1)
1

$$$$
