7055_2-methylnaphthalene
                    3D
 Schrodinger Suite 2021-3.
 21 22  0  0  1  0            999 V2000
   -0.0187    0.0004    0.0000 C   0  0  0  0  0  0
    1.4901    0.0267    0.0000 C   0  0  0  0  0  0
    2.1978    1.2098    0.0000 C   0  0  0  0  0  0
    3.6186    1.2319    0.0000 C   0  0  0  0  0  0
    4.3572    2.4446    0.0000 C   0  0  0  0  0  0
    5.7337    2.4329    0.0000 C   0  0  0  0  0  0
    6.4388    1.2051    0.0000 C   0  0  0  0  0  0
    5.7518    0.0122    0.0000 C   0  0  0  0  0  0
    4.3326   -0.0087    0.0000 C   0  0  0  0  0  0
    3.5863   -1.2176    0.0000 C   0  0  0  0  0  0
    2.2129   -1.1995    0.0000 C   0  0  0  0  0  0
   -0.4402    1.0093    0.0000 H   0  0  0  0  0  0
   -0.4042   -0.5265    0.8809 H   0  0  0  0  0  0
   -0.4042   -0.5266   -0.8809 H   0  0  0  0  0  0
    1.6653    2.1583    0.0000 H   0  0  0  0  0  0
    3.8153    3.3867    0.0000 H   0  0  0  0  0  0
    6.2853    3.3686    0.0000 H   0  0  0  0  0  0
    7.5248    1.2089    0.0000 H   0  0  0  0  0  0
    6.2889   -0.9331    0.0000 H   0  0  0  0  0  0
    4.1220   -2.1634    0.0000 H   0  0  0  0  0  0
    1.6594   -2.1354    0.0000 H   0  0  0  0  0  0
  1  2  1  0  0  0
  1 12  1  0  0  0
  1 13  1  0  0  0
  1 14  1  0  0  0
  2 11  1  0  0  0
  2  3  2  0  0  0
  3  4  1  0  0  0
  3 15  1  0  0  0
  4  9  1  0  0  0
  4  5  2  0  0  0
  5  6  1  0  0  0
  5 16  1  0  0  0
  6  7  2  0  0  0
  6 17  1  0  0  0
  7  8  1  0  0  0
  7 18  1  0  0  0
  8  9  2  0  0  0
  8 19  1  0  0  0
  9 10  1  0  0  0
 10 11  2  0  0  0
 10 20  1  0  0  0
 11 21  1  0  0  0
M  END
>  <i_m_Spin_multiplicity> (1)
1

>  <s_j_Task> (1)
Single Point

>  <s_j_QM_Method> (1)
DFT(b3lyp-d3)

>  <s_j_QM_Basis> (1)
cc-pvtz(-f)

>  <i_j_Number_of_canonical_orbitals> (1)
335

>  <i_j_Geometry_convergence_category> (1)
0

>  <r_j_Gas_Phase_Energy> (1)
-425.354892207815

>  <r_j_Final_Energy> (1)
-425.354892207815

>  <r_j_HOMO> (1)
-0.215870773890082

>  <r_j_LUMO> (1)
-0.0412683026092143

>  <r_j_Polarizability> (1)
127.168684601742

>  <r_j_QM_Dipole_(debye)> (1)
0.48236199160242

>  <r_j_QM_Dipole_X_(debye)> (1)
-0.461746579568556

>  <r_j_QM_Dipole_Y_(debye)> (1)
-0.139510517578742

>  <r_j_QM_Dipole_Z_(debye)> (1)
5.18102626122974e-05

>  <r_j_Lowest_Frequency_(cm-1)> (1)
131.10000138137

>  <r_j_Highest_Frequency_(cm-1)> (1)
3146.57243397525

>  <r_j_2nd_Lowest_Frequency_(cm-1)> (1)
196.545214289302

>  <i_j_Num_Negative_Frequencies> (1)
0

>  <r_j_Zero_Point_Energy_(kcal/mol)> (1)
109.238859952352

>  <r_j_Entropy_(cal/mol/K)_298.15K_1.00E+00atm> (1)
88.4597284864367

>  <r_j_Enthalpy_(kcal/mol)_298.15K_1.00E+00atm> (1)
5.77293759936402

>  <r_j_Free_Energy_(kcal/mol)_298.15K_1.00E+00atm> (1)
-20.6013304488671

>  <r_j_Internal_Energy_(kcal/mol)_298.15K_1.00E+00atm> (1)
5.18045201053675

>  <r_j_Heat_Capacity_(cal/mol/K)_298.15K_1.00E+00atm> (1)
34.4385181515822

>  <r_j_ln(Q)_298.15K_1.00E+00atm> (1)
34.7710236963636

>  <r_j_Total_Internal_Energy_(au)_298.15K_1.00E+00atm> (1)
-425.172553426597

>  <r_j_Total_Enthalpy_(au)_298.15K_1.00E+00atm> (1)
-425.171609240705

>  <r_j_Total_Free_Energy_(au)_298.15K_1.00E+00atm> (1)
-425.213639312455

>  <r_lp_tautomer_probability> (1)
1

>  <r_epik_Ionization_Penalty> (1)
  0.0000

>  <r_epik_Ionization_Penalty_Charging> (1)
  0.0000

>  <r_epik_Ionization_Penalty_Neutral> (1)
  0.0000

>  <r_epik_State_Penalty> (1)
  0.0000

>  <r_epik_Charging_Adjusted_Penalty> (1)
0

>  <i_epik_Tot_Q> (1)
0

>  <i_epik_Tot_abs_Q> (1)
0

>  <s_lp_Force_Field> (1)
S-OPLS

>  <r_lp_Energy> (1)
16.5262

>  <b_lp_Chiralities_Consistent> (1)
1

$$$$
