7070_3,3-Dichlorobenzidine
                    3D
 Schrodinger Suite 2021-3.
 26 27  0  0  1  0            999 V2000
   -0.7364   -1.2012    0.0609 C   0  0  0  0  0  0
   -2.1235   -1.1992    0.0621 C   0  0  0  0  0  0
   -2.8609    0.0002    0.0046 C   0  0  0  0  0  0
   -2.1086    1.1905   -0.0581 C   0  0  0  0  0  0
   -0.7209    1.1910   -0.0678 C   0  0  0  0  0  0
    0.0032   -0.0084   -0.0045 C   0  0  0  0  0  0
    1.4830   -0.0100   -0.0063 C   0  0  0  0  0  0
    2.2099    0.9950    0.6484 C   0  0  0  0  0  0
    3.5977    0.9948    0.6409 C   0  0  0  0  0  0
    4.3465   -0.0076   -0.0077 C   0  0  0  0  0  0
    3.6066   -1.0150   -0.6581 C   0  0  0  0  0  0
    2.2196   -1.0127   -0.6591 C   0  0  0  0  0  0
    5.7174   -0.0113   -0.0137 N   0  0  0  0  0  0
    4.4543    2.2891    1.4928 Cl  0  0  0  0  0  0
   -2.9612    2.7397   -0.1471 Cl  0  0  0  0  0  0
   -4.2315   -0.0021    0.0122 N   0  0  0  0  0  0
   -0.2140   -2.1499    0.1367 H   0  0  0  0  0  0
   -2.6648   -2.1401    0.1225 H   0  0  0  0  0  0
   -0.2025    2.1400   -0.1488 H   0  0  0  0  0  0
    1.6940    1.7781    1.1927 H   0  0  0  0  0  0
    4.1460   -1.8012   -1.1803 H   0  0  0  0  0  0
    1.6951   -1.7946   -1.1996 H   0  0  0  0  0  0
    6.2223   -0.7464   -0.4753 H   0  0  0  0  0  0
    6.2354    0.7104    0.4561 H   0  0  0  0  0  0
   -4.7474    0.8591   -0.0322 H   0  0  0  0  0  0
   -4.7390   -0.8680    0.0462 H   0  0  0  0  0  0
  1  6  1  0  0  0
  1  2  2  0  0  0
  1 17  1  0  0  0
  2  3  1  0  0  0
  2 18  1  0  0  0
  3  4  2  0  0  0
  3 16  1  0  0  0
  4  5  1  0  0  0
  4 15  1  0  0  0
  5  6  2  0  0  0
  5 19  1  0  0  0
  6  7  1  0  0  0
  7 12  1  0  0  0
  7  8  2  0  0  0
  8  9  1  0  0  0
  8 20  1  0  0  0
  9 10  2  0  0  0
  9 14  1  0  0  0
 10 11  1  0  0  0
 10 13  1  0  0  0
 11 12  2  0  0  0
 11 21  1  0  0  0
 12 22  1  0  0  0
 13 23  1  0  0  0
 13 24  1  0  0  0
 16 25  1  0  0  0
 16 26  1  0  0  0
M  END
>  <i_m_Spin_multiplicity> (1)
1

>  <s_j_Task> (1)
Single Point

>  <s_j_QM_Method> (1)
DFT(b3lyp-d3)

>  <s_j_QM_Basis> (1)
cc-pvtz(-f)

>  <i_j_Number_of_canonical_orbitals> (1)
453

>  <i_j_Geometry_convergence_category> (1)
3

>  <r_j_Gas_Phase_Energy> (1)
-1493.48563213072

>  <r_j_Final_Energy> (1)
-1493.48563213072

>  <r_j_HOMO> (1)
-0.188313638129501

>  <r_j_LUMO> (1)
-0.0211052779633229

>  <r_j_Polarizability> (1)
192.924147563006

>  <r_j_QM_Dipole_(debye)> (1)
3.073156674706

>  <r_j_QM_Dipole_X_(debye)> (1)
-0.00713328465742259

>  <r_j_QM_Dipole_Y_(debye)> (1)
-2.96975655471953

>  <r_j_QM_Dipole_Z_(debye)> (1)
-0.790434734333231

>  <r_j_Lowest_Frequency_(cm-1)> (1)
-372.139295522553

>  <r_j_Highest_Frequency_(cm-1)> (1)
3709.61172621281

>  <r_j_2nd_Lowest_Frequency_(cm-1)> (1)
-370.529268127589

>  <i_j_Num_Negative_Frequencies> (1)
2

>  <r_j_Zero_Point_Energy_(kcal/mol)> (1)
121.254456608287

>  <r_j_Entropy_(cal/mol/K)_298.15K_1.00E+00atm> (1)
113.616608231373

>  <r_j_Enthalpy_(kcal/mol)_298.15K_1.00E+00atm> (1)
8.90982676255611

>  <r_j_Free_Energy_(kcal/mol)_298.15K_1.00E+00atm> (1)
-24.9649649816277

>  <r_j_Internal_Energy_(kcal/mol)_298.15K_1.00E+00atm> (1)
8.31734117372883

>  <r_j_Heat_Capacity_(cal/mol/K)_298.15K_1.00E+00atm> (1)
52.9045750989092

>  <r_j_ln(Q)_298.15K_1.00E+00atm> (1)
42.135986853354

>  <r_j_Total_Internal_Energy_(au)_298.15K_1.00E+00atm> (1)
-1493.27914632616

>  <r_j_Total_Enthalpy_(au)_298.15K_1.00E+00atm> (1)
-1493.27820214027

>  <r_j_Total_Free_Energy_(au)_298.15K_1.00E+00atm> (1)
-1493.33218505744

>  <r_lp_tautomer_probability> (1)
1

>  <r_epik_Ionization_Penalty> (1)
  0.0002

>  <r_epik_Ionization_Penalty_Charging> (1)
  0.0000

>  <r_epik_Ionization_Penalty_Neutral> (1)
  0.0002

>  <r_epik_State_Penalty> (1)
  0.0000

>  <r_epik_Charging_Adjusted_Penalty> (1)
0

>  <i_epik_Tot_Q> (1)
0

>  <i_epik_Tot_abs_Q> (1)
0

>  <s_lp_Force_Field> (1)
S-OPLS

>  <r_lp_Energy> (1)
22.1021

>  <b_lp_Chiralities_Consistent> (1)
1

$$$$
