70934_2,3-dihydrofuran
                    3D
 Schrodinger Suite 2021-3.
 11 11  0  0  1  0            999 V2000
   -0.7434   -2.1781   -0.0692 C   0  0  0  0  0  0
    0.7916   -2.0746   -0.2885 C   0  0  0  0  0  0
    1.1318   -0.6606   -0.2985 O   0  0  0  0  0  0
   -0.0359    0.0267   -0.1112 C   0  0  0  0  0  0
   -1.1322   -0.7189    0.0266 C   0  0  0  0  0  0
   -0.9895   -2.7379    0.8417 H   0  0  0  0  0  0
   -1.2417   -2.6907   -0.9016 H   0  0  0  0  0  0
    1.3670   -2.5477    0.5132 H   0  0  0  0  0  0
    1.1123   -2.4988   -1.2451 H   0  0  0  0  0  0
    0.0784    1.1039   -0.0983 H   0  0  0  0  0  0
   -2.1362   -0.3499    0.1816 H   0  0  0  0  0  0
  1  5  1  0  0  0
  1  2  1  0  0  0
  1  6  1  0  0  0
  1  7  1  0  0  0
  2  3  1  0  0  0
  2  8  1  0  0  0
  2  9  1  0  0  0
  3  4  1  0  0  0
  4  5  2  0  0  0
  4 10  1  0  0  0
  5 11  1  0  0  0
M  END
>  <i_m_Spin_multiplicity> (1)
1

>  <s_j_Task> (1)
Single Point

>  <s_j_QM_Method> (1)
DFT(b3lyp-d3)

>  <s_j_QM_Basis> (1)
cc-pvtz(-f)

>  <i_j_Number_of_canonical_orbitals> (1)
168

>  <i_j_Geometry_convergence_category> (1)
0

>  <r_j_Gas_Phase_Energy> (1)
-231.308721935535

>  <r_j_Final_Energy> (1)
-231.308721935535

>  <r_j_HOMO> (1)
-0.219747232594045

>  <r_j_LUMO> (1)
0.0191422687520973

>  <r_j_Polarizability> (1)
46.817964590597

>  <r_j_QM_Dipole_(debye)> (1)
1.16791400915323

>  <r_j_QM_Dipole_X_(debye)> (1)
-0.799723050360953

>  <r_j_QM_Dipole_Y_(debye)> (1)
-0.846154655392655

>  <r_j_QM_Dipole_Z_(debye)> (1)
0.0921329184117865

>  <r_j_Lowest_Frequency_(cm-1)> (1)
87.8432128457246

>  <r_j_Highest_Frequency_(cm-1)> (1)
3203.69056930836

>  <r_j_2nd_Lowest_Frequency_(cm-1)> (1)
470.600601755232

>  <i_j_Num_Negative_Frequencies> (1)
0

>  <r_j_Zero_Point_Energy_(kcal/mol)> (1)
57.866552925117

>  <r_j_Entropy_(cal/mol/K)_298.15K_1.00E+00atm> (1)
69.1930213722691

>  <r_j_Enthalpy_(kcal/mol)_298.15K_1.00E+00atm> (1)
3.40096009642888

>  <r_j_Free_Energy_(kcal/mol)_298.15K_1.00E+00atm> (1)
-17.2289392257131

>  <r_j_Internal_Energy_(kcal/mol)_298.15K_1.00E+00atm> (1)
2.8084745076016

>  <r_j_Heat_Capacity_(cal/mol/K)_298.15K_1.00E+00atm> (1)
15.4489884526679

>  <r_j_ln(Q)_298.15K_1.00E+00atm> (1)
29.0790857205741

>  <r_j_Total_Internal_Energy_(au)_298.15K_1.00E+00atm> (1)
-231.212030123963

>  <r_j_Total_Enthalpy_(au)_298.15K_1.00E+00atm> (1)
-231.211085938071

>  <r_j_Total_Free_Energy_(au)_298.15K_1.00E+00atm> (1)
-231.243961775502

>  <r_lp_tautomer_probability> (1)
1

>  <r_epik_Ionization_Penalty> (1)
  0.0000

>  <r_epik_Ionization_Penalty_Charging> (1)
  0.0000

>  <r_epik_Ionization_Penalty_Neutral> (1)
  0.0000

>  <r_epik_State_Penalty> (1)
  0.0000

>  <r_epik_Charging_Adjusted_Penalty> (1)
0

>  <i_epik_Tot_Q> (1)
0

>  <i_epik_Tot_abs_Q> (1)
0

>  <s_lp_Force_Field> (1)
S-OPLS

>  <r_lp_Energy> (1)
-3.17717

>  <b_lp_Chiralities_Consistent> (1)
1

$$$$
