7095_Biphenyl
                    3D
 Schrodinger Suite 2021-3.
 22 23  0  0  1  0            999 V2000
   -2.8091    0.0005   -0.0027 C   0  0  0  0  0  0
   -2.1067   -1.2021    0.0846 C   0  0  0  0  0  0
   -0.7136   -1.2026    0.0883 C   0  0  0  0  0  0
    0.0081   -0.0009    0.0021 C   0  0  0  0  0  0
   -0.7122    1.2015   -0.0841 C   0  0  0  0  0  0
   -2.1053    1.2024   -0.0862 C   0  0  0  0  0  0
    1.4919   -0.0008    0.0015 C   0  0  0  0  0  0
    2.2131    0.9974    0.6767 C   0  0  0  0  0  0
    3.6061    0.9994    0.6736 C   0  0  0  0  0  0
    4.3091    0.0013   -0.0021 C   0  0  0  0  0  0
    3.6059   -0.9980   -0.6758 C   0  0  0  0  0  0
    2.2128   -0.9982   -0.6752 C   0  0  0  0  0  0
   -3.8950    0.0009   -0.0055 H   0  0  0  0  0  0
   -2.6448   -2.1429    0.1588 H   0  0  0  0  0  0
   -0.1756   -2.1413    0.1826 H   0  0  0  0  0  0
   -0.1724    2.1396   -0.1741 H   0  0  0  0  0  0
   -2.6422    2.1438   -0.1621 H   0  0  0  0  0  0
    1.6746    1.7632    1.2272 H   0  0  0  0  0  0
    4.1437    1.7778    1.2078 H   0  0  0  0  0  0
    5.3950    0.0023   -0.0037 H   0  0  0  0  0  0
    4.1433   -1.7756   -1.2114 H   0  0  0  0  0  0
    1.6741   -1.7647   -1.2246 H   0  0  0  0  0  0
  1  6  1  0  0  0
  1  2  2  0  0  0
  1 13  1  0  0  0
  2  3  1  0  0  0
  2 14  1  0  0  0
  3  4  2  0  0  0
  3 15  1  0  0  0
  4  5  1  0  0  0
  4  7  1  0  0  0
  5  6  2  0  0  0
  5 16  1  0  0  0
  6 17  1  0  0  0
  7 12  1  0  0  0
  7  8  2  0  0  0
  8  9  1  0  0  0
  8 18  1  0  0  0
  9 10  2  0  0  0
  9 19  1  0  0  0
 10 11  1  0  0  0
 10 20  1  0  0  0
 11 12  2  0  0  0
 11 21  1  0  0  0
 12 22  1  0  0  0
M  END
>  <i_m_Spin_multiplicity> (1)
1

>  <s_j_Task> (1)
Single Point

>  <s_j_QM_Method> (1)
DFT(b3lyp-d3)

>  <s_j_QM_Basis> (1)
cc-pvtz(-f)

>  <i_j_Number_of_canonical_orbitals> (1)
357

>  <i_j_Geometry_convergence_category> (1)
3

>  <r_j_Gas_Phase_Energy> (1)
-463.463257058582

>  <r_j_Final_Energy> (1)
-463.463257058582

>  <r_j_HOMO> (1)
-0.231965841238364

>  <r_j_LUMO> (1)
-0.0391038181440777

>  <r_j_Polarizability> (1)
135.206814825417

>  <r_j_QM_Dipole_(debye)> (1)
0.00161753207442072

>  <r_j_QM_Dipole_X_(debye)> (1)
3.9457770452842e-06

>  <r_j_QM_Dipole_Y_(debye)> (1)
0.000818554263748196

>  <r_j_QM_Dipole_Z_(debye)> (1)
-0.00139512127068687

>  <r_j_Lowest_Frequency_(cm-1)> (1)
99.8360430942787

>  <r_j_Highest_Frequency_(cm-1)> (1)
3150.02543225118

>  <r_j_2nd_Lowest_Frequency_(cm-1)> (1)
115.291438993125

>  <i_j_Num_Negative_Frequencies> (1)
0

>  <r_j_Zero_Point_Energy_(kcal/mol)> (1)
113.371508516764

>  <r_j_Entropy_(cal/mol/K)_298.15K_1.00E+00atm> (1)
91.7630382724184

>  <r_j_Enthalpy_(kcal/mol)_298.15K_1.00E+00atm> (1)
6.01995314192484

>  <r_j_Free_Energy_(kcal/mol)_298.15K_1.00E+00atm> (1)
-21.3391967189967

>  <r_j_Internal_Energy_(kcal/mol)_298.15K_1.00E+00atm> (1)
5.42746755309757

>  <r_j_Heat_Capacity_(cal/mol/K)_298.15K_1.00E+00atm> (1)
35.8995068508898

>  <r_j_ln(Q)_298.15K_1.00E+00atm> (1)
36.0163979030006

>  <r_j_Total_Internal_Energy_(au)_298.15K_1.00E+00atm> (1)
-463.273938838301

>  <r_j_Total_Enthalpy_(au)_298.15K_1.00E+00atm> (1)
-463.272994652408

>  <r_j_Total_Free_Energy_(au)_298.15K_1.00E+00atm> (1)
-463.316594233242

>  <r_lp_tautomer_probability> (1)
1

>  <r_epik_Ionization_Penalty> (1)
  0.0000

>  <r_epik_Ionization_Penalty_Charging> (1)
  0.0000

>  <r_epik_Ionization_Penalty_Neutral> (1)
  0.0000

>  <r_epik_State_Penalty> (1)
  0.0000

>  <r_epik_Charging_Adjusted_Penalty> (1)
0

>  <i_epik_Tot_Q> (1)
0

>  <i_epik_Tot_abs_Q> (1)
0

>  <s_lp_Force_Field> (1)
S-OPLS

>  <r_lp_Energy> (1)
21.3249

>  <b_lp_Chiralities_Consistent> (1)
1

$$$$
