7102_4-Aminobiphenyl
                    3D
 Schrodinger Suite 2021-3.
 24 25  0  0  1  0            999 V2000
   -2.8113    0.0001   -0.0004 C   0  0  0  0  0  0
   -2.1065   -1.2023    0.0688 C   0  0  0  0  0  0
   -0.7133   -1.2019    0.0734 C   0  0  0  0  0  0
    0.0124   -0.0001    0.0005 C   0  0  0  0  0  0
   -0.7130    1.2018   -0.0730 C   0  0  0  0  0  0
   -2.1062    1.2024   -0.0692 C   0  0  0  0  0  0
    1.4938   -0.0003    0.0006 C   0  0  0  0  0  0
    2.2277    1.0023    0.6562 C   0  0  0  0  0  0
    3.6163    1.0090    0.6605 C   0  0  0  0  0  0
    4.3416    0.0001   -0.0002 C   0  0  0  0  0  0
    3.6162   -1.0090   -0.6606 C   0  0  0  0  0  0
    2.2276   -1.0026   -0.6555 C   0  0  0  0  0  0
    5.7186    0.0003   -0.0007 N   0  0  0  0  0  0
   -3.8974    0.0003   -0.0008 H   0  0  0  0  0  0
   -2.6435   -2.1449    0.1305 H   0  0  0  0  0  0
   -0.1771   -2.1426    0.1590 H   0  0  0  0  0  0
   -0.1765    2.1424   -0.1584 H   0  0  0  0  0  0
   -2.6430    2.1452   -0.1314 H   0  0  0  0  0  0
    1.6988    1.7820    1.1969 H   0  0  0  0  0  0
    4.1519    1.7953    1.1872 H   0  0  0  0  0  0
    4.1517   -1.7951   -1.1877 H   0  0  0  0  0  0
    1.6985   -1.7824   -1.1960 H   0  0  0  0  0  0
    6.2360   -0.7219   -0.4692 H   0  0  0  0  0  0
    6.2361    0.7227    0.4674 H   0  0  0  0  0  0
  1  6  1  0  0  0
  1  2  2  0  0  0
  1 14  1  0  0  0
  2  3  1  0  0  0
  2 15  1  0  0  0
  3  4  2  0  0  0
  3 16  1  0  0  0
  4  5  1  0  0  0
  4  7  1  0  0  0
  5  6  2  0  0  0
  5 17  1  0  0  0
  6 18  1  0  0  0
  7 12  1  0  0  0
  7  8  2  0  0  0
  8  9  1  0  0  0
  8 19  1  0  0  0
  9 10  2  0  0  0
  9 20  1  0  0  0
 10 11  1  0  0  0
 10 13  1  0  0  0
 11 12  2  0  0  0
 11 21  1  0  0  0
 12 22  1  0  0  0
 13 23  1  0  0  0
 13 24  1  0  0  0
M  END
>  <i_m_Spin_multiplicity> (1)
1

>  <s_j_Task> (1)
Single Point

>  <s_j_QM_Method> (1)
DFT(b3lyp-d3)

>  <s_j_QM_Basis> (1)
cc-pvtz(-f)

>  <i_j_Number_of_canonical_orbitals> (1)
387

>  <i_j_Geometry_convergence_category> (1)
0

>  <r_j_Gas_Phase_Energy> (1)
-518.840903042809

>  <r_j_Final_Energy> (1)
-518.840903042809

>  <r_j_HOMO> (1)
-0.19436753719897

>  <r_j_LUMO> (1)
-0.0225064068776722

>  <r_j_Polarizability> (1)
151.10475320859

>  <r_j_QM_Dipole_(debye)> (1)
2.69283765911901

>  <r_j_QM_Dipole_X_(debye)> (1)
2.69283722009087

>  <r_j_QM_Dipole_Y_(debye)> (1)
0.000546416128090934

>  <r_j_QM_Dipole_Z_(debye)> (1)
-0.00143732118633706

>  <r_j_Lowest_Frequency_(cm-1)> (1)
-411.93691280745

>  <r_j_Highest_Frequency_(cm-1)> (1)
3709.48506857861

>  <r_j_2nd_Lowest_Frequency_(cm-1)> (1)
89.4188999811532

>  <i_j_Num_Negative_Frequencies> (1)
1

>  <r_j_Zero_Point_Energy_(kcal/mol)> (1)
123.12729143344

>  <r_j_Entropy_(cal/mol/K)_298.15K_1.00E+00atm> (1)
96.9052161469212

>  <r_j_Enthalpy_(kcal/mol)_298.15K_1.00E+00atm> (1)
6.7526783634768

>  <r_j_Free_Energy_(kcal/mol)_298.15K_1.00E+00atm> (1)
-22.1396118307278

>  <r_j_Internal_Energy_(kcal/mol)_298.15K_1.00E+00atm> (1)
6.16019277464953

>  <r_j_Heat_Capacity_(cal/mol/K)_298.15K_1.00E+00atm> (1)
40.68294542979

>  <r_j_ln(Q)_298.15K_1.00E+00atm> (1)
37.3673423425359

>  <r_j_Total_Internal_Energy_(au)_298.15K_1.00E+00atm> (1)
-518.634870320772

>  <r_j_Total_Enthalpy_(au)_298.15K_1.00E+00atm> (1)
-518.63392613488

>  <r_j_Total_Free_Energy_(au)_298.15K_1.00E+00atm> (1)
-518.679968930368

>  <r_epik_Ionization_Penalty> (1)
  0.0018

>  <r_epik_Ionization_Penalty_Charging> (1)
  0.0000

>  <r_epik_Ionization_Penalty_Neutral> (1)
  0.0018

>  <r_epik_State_Penalty> (1)
  0.0013

>  <r_epik_Charging_Adjusted_Penalty> (1)
0.00125442

>  <i_epik_Tot_Q> (1)
0

>  <i_epik_Tot_abs_Q> (1)
0

>  <s_lp_Force_Field> (1)
S-OPLS

>  <r_lp_Energy> (1)
19.5586

>  <b_lp_Chiralities_Consistent> (1)
1

$$$$
