71072_Benzonaphthofurans
                    3D
 Schrodinger Suite 2021-3.
 27 30  0  0  1  0            999 V2000
    1.1688    1.7164    0.0000 C   0  0  0  0  0  0
   -0.0741    1.0361    0.0077 C   0  0  0  0  0  0
   -1.2538    1.7426    0.0215 C   0  0  0  0  0  0
   -1.2594    3.1639    0.0284 C   0  0  0  0  0  0
   -2.4751    3.8995    0.0426 C   0  0  0  0  0  0
   -2.3891    5.2648    0.0484 C   0  0  0  0  0  0
   -1.1531    5.9743    0.0408 C   0  0  0  0  0  0
    0.0337    5.2732    0.0270 C   0  0  0  0  0  0
    0.0051    3.8565    0.0205 C   0  0  0  0  0  0
    1.2035    3.0900    0.0063 C   0  0  0  0  0  0
   -1.5189    7.3785    0.0507 C   0  0  0  0  0  0
   -0.8133    8.5841    0.0502 C   0  0  0  0  0  0
   -1.5342    9.7774    0.0622 C   0  0  0  0  0  0
   -2.9375    9.7712    0.0745 C   0  0  0  0  0  0
   -3.6619    8.5762    0.0753 C   0  0  0  0  0  0
   -2.9252    7.4021    0.0633 C   0  0  0  0  0  0
   -3.4620    6.1321    0.0620 O   0  0  0  0  0  0
    2.0940    1.1476   -0.0109 H   0  0  0  0  0  0
   -0.0919   -0.0498    0.0026 H   0  0  0  0  0  0
   -2.2064    1.2194    0.0275 H   0  0  0  0  0  0
   -3.4336    3.3923    0.0486 H   0  0  0  0  0  0
    0.9889    5.7902    0.0210 H   0  0  0  0  0  0
    2.1550    3.6155    0.0005 H   0  0  0  0  0  0
    0.2725    8.5890    0.0406 H   0  0  0  0  0  0
   -1.0049   10.7252    0.0619 H   0  0  0  0  0  0
   -3.4746   10.7148    0.0837 H   0  0  0  0  0  0
   -4.7457    8.5578    0.0848 H   0  0  0  0  0  0
  1 10  1  0  0  0
  1  2  2  0  0  0
  1 18  1  0  0  0
  2  3  1  0  0  0
  2 19  1  0  0  0
  3  4  2  0  0  0
  3 20  1  0  0  0
  4  9  1  0  0  0
  4  5  1  0  0  0
  5  6  2  0  0  0
  5 21  1  0  0  0
  6 17  1  0  0  0
  6  7  1  0  0  0
  7  8  2  0  0  0
  7 11  1  0  0  0
  8  9  1  0  0  0
  8 22  1  0  0  0
  9 10  2  0  0  0
 10 23  1  0  0  0
 11 16  1  0  0  0
 11 12  2  0  0  0
 12 13  1  0  0  0
 12 24  1  0  0  0
 13 14  2  0  0  0
 13 25  1  0  0  0
 14 15  1  0  0  0
 14 26  1  0  0  0
 15 16  2  0  0  0
 15 27  1  0  0  0
 16 17  1  0  0  0
M  END
>  <i_m_Spin_multiplicity> (1)
1

>  <s_j_Task> (1)
Single Point

>  <s_j_QM_Method> (1)
DFT(b3lyp-d3)

>  <s_j_QM_Basis> (1)
cc-pvtz(-f)

>  <i_j_Number_of_canonical_orbitals> (1)
468

>  <i_j_Geometry_convergence_category> (1)
3

>  <r_j_Gas_Phase_Energy> (1)
-691.196555286703

>  <r_j_Final_Energy> (1)
-691.196555286703

>  <r_j_HOMO> (1)
-0.184100720042764

>  <r_j_LUMO> (1)
-0.0352771067609114

>  <r_j_Polarizability> (1)
199.888075541393

>  <r_j_QM_Dipole_(debye)> (1)
0.784776445028499

>  <r_j_QM_Dipole_X_(debye)> (1)
0.628909748242406

>  <r_j_QM_Dipole_Y_(debye)> (1)
0.469398636887017

>  <r_j_QM_Dipole_Z_(debye)> (1)
-0.00339365965468888

>  <r_j_Lowest_Frequency_(cm-1)> (1)
82.3597595266869

>  <r_j_Highest_Frequency_(cm-1)> (1)
3164.59554004487

>  <r_j_2nd_Lowest_Frequency_(cm-1)> (1)
124.097423221767

>  <i_j_Num_Negative_Frequencies> (1)
0

>  <r_j_Zero_Point_Energy_(kcal/mol)> (1)
131.636471956875

>  <r_j_Entropy_(cal/mol/K)_298.15K_1.00E+00atm> (1)
102.110865399157

>  <r_j_Enthalpy_(kcal/mol)_298.15K_1.00E+00atm> (1)
7.46549027858125

>  <r_j_Free_Energy_(kcal/mol)_298.15K_1.00E+00atm> (1)
-22.9788642401773

>  <r_j_Internal_Energy_(kcal/mol)_298.15K_1.00E+00atm> (1)
6.87300468975397

>  <r_j_Heat_Capacity_(cal/mol/K)_298.15K_1.00E+00atm> (1)
47.7396016676633

>  <r_j_ln(Q)_298.15K_1.00E+00atm> (1)
38.7838365582193

>  <r_j_Total_Internal_Energy_(au)_298.15K_1.00E+00atm> (1)
-690.975826384162

>  <r_j_Total_Enthalpy_(au)_298.15K_1.00E+00atm> (1)
-690.97488219827

>  <r_j_Total_Free_Energy_(au)_298.15K_1.00E+00atm> (1)
-691.023398365714

>  <r_lp_tautomer_probability> (1)
1

>  <r_epik_Ionization_Penalty> (1)
  0.0000

>  <r_epik_Ionization_Penalty_Charging> (1)
  0.0000

>  <r_epik_Ionization_Penalty_Neutral> (1)
  0.0000

>  <r_epik_State_Penalty> (1)
  0.0000

>  <r_epik_Charging_Adjusted_Penalty> (1)
0

>  <i_epik_Tot_Q> (1)
0

>  <i_epik_Tot_abs_Q> (1)
0

>  <s_lp_Force_Field> (1)
S-OPLS

>  <r_lp_Energy> (1)
28.9049

>  <b_lp_Chiralities_Consistent> (1)
1

$$$$
