7108_Dibenzothiazine
                    3D
 Schrodinger Suite 2021-3.
 23 25  0  0  1  0            999 V2000
    1.4004    2.1641   -0.0330 C   0  0  0  0  0  0
    1.6946    1.3867    1.0840 C   0  0  0  0  0  0
    2.0805    0.0571    0.9093 C   0  0  0  0  0  0
    2.1760   -0.5046   -0.3634 C   0  0  0  0  0  0
    1.8792    0.2788   -1.4946 C   0  0  0  0  0  0
    1.4927    1.6126   -1.3088 C   0  0  0  0  0  0
    1.9576   -0.2294   -2.7882 N   0  0  0  0  0  0
    2.3189   -1.5170   -3.1745 C   0  0  0  0  0  0
    2.3379   -1.8392   -4.5378 C   0  0  0  0  0  0
    2.6927   -3.1146   -4.9710 C   0  0  0  0  0  0
    3.0363   -4.0940   -4.0429 C   0  0  0  0  0  0
    3.0204   -3.7828   -2.6828 C   0  0  0  0  0  0
    2.6668   -2.5092   -2.2386 C   0  0  0  0  0  0
    2.6800   -2.2184   -0.4728 S   0  0  0  0  0  0
    1.0982    3.2006    0.0809 H   0  0  0  0  0  0
    1.6269    1.8033    2.0838 H   0  0  0  0  0  0
    2.3118   -0.5561    1.7763 H   0  0  0  0  0  0
    1.2631    2.2189   -2.1824 H   0  0  0  0  0  0
    1.7259    0.4097   -3.5321 H   0  0  0  0  0  0
    2.0691   -1.0730   -5.2618 H   0  0  0  0  0  0
    2.6987   -3.3361   -6.0338 H   0  0  0  0  0  0
    3.3148   -5.0918   -4.3661 H   0  0  0  0  0  0
    3.2874   -4.5420   -1.9523 H   0  0  0  0  0  0
  1  6  1  0  0  0
  1  2  2  0  0  0
  1 15  1  0  0  0
  2  3  1  0  0  0
  2 16  1  0  0  0
  3  4  2  0  0  0
  3 17  1  0  0  0
  4 14  1  0  0  0
  4  5  1  0  0  0
  5  6  2  0  0  0
  5  7  1  0  0  0
  6 18  1  0  0  0
  7  8  1  0  0  0
  7 19  1  0  0  0
  8 13  1  0  0  0
  8  9  2  0  0  0
  9 10  1  0  0  0
  9 20  1  0  0  0
 10 11  2  0  0  0
 10 21  1  0  0  0
 11 12  1  0  0  0
 11 22  1  0  0  0
 12 13  2  0  0  0
 12 23  1  0  0  0
 13 14  1  0  0  0
M  END
>  <i_m_Spin_multiplicity> (1)
1

>  <s_j_Task> (1)
Single Point

>  <s_j_QM_Method> (1)
DFT(b3lyp-d3)

>  <s_j_QM_Basis> (1)
cc-pvtz(-f)

>  <i_j_Number_of_canonical_orbitals> (1)
398

>  <i_j_Geometry_convergence_category> (1)
0

>  <r_j_Gas_Phase_Energy> (1)
-915.850126727704

>  <r_j_Final_Energy> (1)
-915.850126727704

>  <r_j_HOMO> (1)
-0.176714437801479

>  <r_j_LUMO> (1)
-0.0261435174149155

>  <r_j_Polarizability> (1)
166.844217787113

>  <r_j_QM_Dipole_(debye)> (1)
2.03833080950031

>  <r_j_QM_Dipole_X_(debye)> (1)
-0.469644544911482

>  <r_j_QM_Dipole_Y_(debye)> (1)
1.29256999333023

>  <r_j_QM_Dipole_Z_(debye)> (1)
-1.50448971506466

>  <r_j_Lowest_Frequency_(cm-1)> (1)
-35.2806826856588

>  <r_j_Highest_Frequency_(cm-1)> (1)
3594.84884096517

>  <r_j_2nd_Lowest_Frequency_(cm-1)> (1)
132.374910463416

>  <i_j_Num_Negative_Frequencies> (1)
1

>  <r_j_Zero_Point_Energy_(kcal/mol)> (1)
110.781669849854

>  <r_j_Entropy_(cal/mol/K)_298.15K_1.00E+00atm> (1)
95.4902216234508

>  <r_j_Enthalpy_(kcal/mol)_298.15K_1.00E+00atm> (1)
6.60480499074423

>  <r_j_Free_Energy_(kcal/mol)_298.15K_1.00E+00atm> (1)
-21.8656045862876

>  <r_j_Internal_Energy_(kcal/mol)_298.15K_1.00E+00atm> (1)
6.01231940191696

>  <r_j_Heat_Capacity_(cal/mol/K)_298.15K_1.00E+00atm> (1)
41.1818372313032

>  <r_j_ln(Q)_298.15K_1.00E+00atm> (1)
36.904871609733

>  <r_j_Total_Internal_Energy_(au)_298.15K_1.00E+00atm> (1)
-915.66400365732

>  <r_j_Total_Enthalpy_(au)_298.15K_1.00E+00atm> (1)
-915.663059471427

>  <r_j_Total_Free_Energy_(au)_298.15K_1.00E+00atm> (1)
-915.708429957353

>  <r_lp_tautomer_probability> (1)
1

>  <r_epik_Ionization_Penalty> (1)
  0.0000

>  <r_epik_Ionization_Penalty_Charging> (1)
  0.0000

>  <r_epik_Ionization_Penalty_Neutral> (1)
  0.0000

>  <r_epik_State_Penalty> (1)
  0.0000

>  <r_epik_Charging_Adjusted_Penalty> (1)
0

>  <i_epik_Tot_Q> (1)
0

>  <i_epik_Tot_abs_Q> (1)
0

>  <s_lp_Force_Field> (1)
S-OPLS

>  <r_lp_Energy> (1)
30.5395

>  <b_lp_Chiralities_Consistent> (1)
1

$$$$
