7111_Benzidine
                    3D
 Schrodinger Suite 2021-3.
 26 27  0  0  1  0            999 V2000
   -0.7265   -1.1939   -0.0661 C   0  0  0  0  0  0
   -2.1160   -1.2030   -0.0634 C   0  0  0  0  0  0
   -2.8420   -0.0001    0.0001 C   0  0  0  0  0  0
   -2.1166    1.2033    0.0631 C   0  0  0  0  0  0
   -0.7269    1.1955    0.0656 C   0  0  0  0  0  0
    0.0097    0.0009   -0.0001 C   0  0  0  0  0  0
    1.4904    0.0005    0.0001 C   0  0  0  0  0  0
    2.2270    1.0021   -0.6544 C   0  0  0  0  0  0
    3.6166    1.0102   -0.6564 C   0  0  0  0  0  0
    4.3420   -0.0005    0.0001 C   0  0  0  0  0  0
    3.6159   -1.0107    0.6564 C   0  0  0  0  0  0
    2.2264   -1.0017    0.6545 C   0  0  0  0  0  0
    5.7215   -0.0009    0.0001 N   0  0  0  0  0  0
   -4.2215   -0.0011    0.0004 N   0  0  0  0  0  0
   -0.1987   -2.1397   -0.1457 H   0  0  0  0  0  0
   -2.6505   -2.1483   -0.1238 H   0  0  0  0  0  0
   -2.6520    2.1481    0.1236 H   0  0  0  0  0  0
   -0.1992    2.1418    0.1445 H   0  0  0  0  0  0
    1.6993    1.7820   -1.1961 H   0  0  0  0  0  0
    4.1521    1.7980   -1.1813 H   0  0  0  0  0  0
    4.1510   -1.7989    1.1812 H   0  0  0  0  0  0
    1.6983   -1.7814    1.1961 H   0  0  0  0  0  0
    6.2390   -0.7255    0.4646 H   0  0  0  0  0  0
    6.2394    0.7235   -0.4645 H   0  0  0  0  0  0
   -4.7400    0.8582    0.0403 H   0  0  0  0  0  0
   -4.7384   -0.8613   -0.0393 H   0  0  0  0  0  0
  1  6  1  0  0  0
  1  2  2  0  0  0
  1 15  1  0  0  0
  2  3  1  0  0  0
  2 16  1  0  0  0
  3  4  2  0  0  0
  3 14  1  0  0  0
  4  5  1  0  0  0
  4 17  1  0  0  0
  5  6  2  0  0  0
  5 18  1  0  0  0
  6  7  1  0  0  0
  7 12  1  0  0  0
  7  8  2  0  0  0
  8  9  1  0  0  0
  8 19  1  0  0  0
  9 10  2  0  0  0
  9 20  1  0  0  0
 10 11  1  0  0  0
 10 13  1  0  0  0
 11 12  2  0  0  0
 11 21  1  0  0  0
 12 22  1  0  0  0
 13 23  1  0  0  0
 13 24  1  0  0  0
 14 25  1  0  0  0
 14 26  1  0  0  0
M  END
>  <i_m_Spin_multiplicity> (1)
1

>  <s_j_Task> (1)
Single Point

>  <s_j_QM_Method> (1)
DFT(b3lyp-d3)

>  <s_j_QM_Basis> (1)
cc-pvtz(-f)

>  <i_j_Number_of_canonical_orbitals> (1)
417

>  <i_j_Geometry_convergence_category> (1)
0

>  <r_j_Gas_Phase_Energy> (1)
-574.217330629599

>  <r_j_Final_Energy> (1)
-574.217330629599

>  <r_j_HOMO> (1)
-0.174474239356132

>  <r_j_LUMO> (1)
-0.00448215753180857

>  <r_j_Polarizability> (1)
165.392032833398

>  <r_j_QM_Dipole_(debye)> (1)
0.00347094576632743

>  <r_j_QM_Dipole_X_(debye)> (1)
-7.89132962110703e-05

>  <r_j_QM_Dipole_Y_(debye)> (1)
-0.0034569107073106

>  <r_j_QM_Dipole_Z_(debye)> (1)
0.000301671288240584

>  <r_j_Lowest_Frequency_(cm-1)> (1)
-434.482570457036

>  <r_j_Highest_Frequency_(cm-1)> (1)
3709.07572262123

>  <r_j_2nd_Lowest_Frequency_(cm-1)> (1)
-433.672622458647

>  <i_j_Num_Negative_Frequencies> (1)
2

>  <r_j_Zero_Point_Energy_(kcal/mol)> (1)
132.857584720765

>  <r_j_Entropy_(cal/mol/K)_298.15K_1.00E+00atm> (1)
102.054062213953

>  <r_j_Enthalpy_(kcal/mol)_298.15K_1.00E+00atm> (1)
7.5018647678155

>  <r_j_Free_Energy_(kcal/mol)_298.15K_1.00E+00atm> (1)
-22.9255538812744

>  <r_j_Internal_Energy_(kcal/mol)_298.15K_1.00E+00atm> (1)
6.90937917898823

>  <r_j_Heat_Capacity_(cal/mol/K)_298.15K_1.00E+00atm> (1)
45.5266225324279

>  <r_j_ln(Q)_298.15K_1.00E+00atm> (1)
38.6938590804406

>  <r_j_Total_Internal_Energy_(au)_298.15K_1.00E+00atm> (1)
-573.994597793551

>  <r_j_Total_Enthalpy_(au)_298.15K_1.00E+00atm> (1)
-573.993653607659

>  <r_j_Total_Free_Energy_(au)_298.15K_1.00E+00atm> (1)
-574.042142786076

>  <r_lp_tautomer_probability> (1)
1

>  <r_epik_Ionization_Penalty> (1)
  0.0041

>  <r_epik_Ionization_Penalty_Charging> (1)
  0.0000

>  <r_epik_Ionization_Penalty_Neutral> (1)
  0.0041

>  <r_epik_State_Penalty> (1)
  0.0000

>  <r_epik_Charging_Adjusted_Penalty> (1)
0

>  <i_epik_Tot_Q> (1)
0

>  <i_epik_Tot_abs_Q> (1)
0

>  <s_lp_Force_Field> (1)
S-OPLS

>  <r_lp_Energy> (1)
13.8615

>  <b_lp_Chiralities_Consistent> (1)
1

$$$$
