712_Formaldehyde
                    3D
 Schrodinger Suite 2021-3.
  2  1  0  0  1  0            999 V2000
    0.0417    0.0879   -0.5606 C   0  5  0  0  0  0
   -0.0417   -0.0879    0.5606 O   0  3  1  0  0  0
  1  2  3  0  0  0
M  END
>  <i_m_Spin_multiplicity> (1)
1

>  <s_j_Task> (1)
Single Point

>  <s_j_QM_Method> (1)
DFT(b3lyp-d3)

>  <s_j_QM_Basis> (1)
cc-pvtz(-f)

>  <i_j_Number_of_canonical_orbitals> (1)
46

>  <r_j_Gas_Phase_Energy> (1)
-113.354285790042

>  <r_j_Final_Energy> (1)
-113.354285790042

>  <r_j_HOMO> (1)
-0.38174636372812

>  <r_j_LUMO> (1)
-0.0356331909153484

>  <r_j_Polarizability> (1)
11.4342305850702

>  <r_j_QM_Dipole_(debye)> (1)
0.0947438709094949

>  <r_j_QM_Dipole_X_(debye)> (1)
-0.00694374391368175

>  <r_j_QM_Dipole_Y_(debye)> (1)
-0.0146366638377858

>  <r_j_QM_Dipole_Z_(debye)> (1)
0.0933485595340169

>  <r_j_Lowest_Frequency_(cm-1)> (1)
2121.60378039833

>  <r_j_Highest_Frequency_(cm-1)> (1)
2121.60378039833

>  <r_j_2nd_Lowest_Frequency_(cm-1)> (1)
2121.60378039833

>  <i_j_Num_Negative_Frequencies> (1)
0

>  <r_j_Zero_Point_Energy_(kcal/mol)> (1)
3.03298485330163

>  <r_j_Entropy_(cal/mol/K)_298.15K_1.00E+00atm> (1)
47.2362709170921

>  <r_j_Enthalpy_(kcal/mol)_298.15K_1.00E+00atm> (1)
2.07391659797274

>  <r_j_Free_Energy_(kcal/mol)_298.15K_1.00E+00atm> (1)
-12.0095775759583

>  <r_j_Internal_Energy_(kcal/mol)_298.15K_1.00E+00atm> (1)
1.48143100914546

>  <r_j_Heat_Capacity_(cal/mol/K)_298.15K_1.00E+00atm> (1)
4.97546910822987

>  <r_j_ln(Q)_298.15K_1.00E+00atm> (1)
20.269822258005

>  <r_j_Total_Internal_Energy_(au)_298.15K_1.00E+00atm> (1)
-113.347091610387

>  <r_j_Total_Enthalpy_(au)_298.15K_1.00E+00atm> (1)
-113.346147424495

>  <r_j_Total_Free_Energy_(au)_298.15K_1.00E+00atm> (1)
-113.368590901203

>  <r_lp_tautomer_probability> (1)
1

>  <r_epik_Ionization_Penalty> (1)
  0.0000

>  <r_epik_Ionization_Penalty_Charging> (1)
  0.0000

>  <r_epik_Ionization_Penalty_Neutral> (1)
  0.0000

>  <r_epik_State_Penalty> (1)
  0.0000

>  <r_epik_Charging_Adjusted_Penalty> (1)
0

>  <i_epik_Tot_Q> (1)
0

>  <i_epik_Tot_abs_Q> (1)
2

>  <s_lp_Force_Field> (1)
S-OPLS

>  <r_lp_Energy> (1)
0

>  <b_lp_Chiralities_Consistent> (1)
1

$$$$
