71318052_Dimethylbutylcyclohexane
                    3D
 Schrodinger Suite 2021-3.
 36 36  0  0  1  0            999 V2000
   -2.1109   -0.6263    1.4387 C   0  0  0  0  0  0
   -0.6437   -0.9539    1.1346 C   0  0  0  0  0  0
   -0.0435   -0.1057   -0.0149 C   0  0  0  0  0  0
   -0.5944   -0.6073   -1.3630 C   0  0  0  0  0  0
    1.5291   -0.0022    0.0426 C   0  0  0  0  0  0
    2.1541   -1.4219    0.1346 C   0  0  0  0  0  0
    3.6886   -1.4412    0.0686 C   0  0  0  0  0  0
    4.1944   -0.7548   -1.2048 C   0  0  0  0  0  0
    3.6310    0.6662   -1.3178 C   0  0  0  0  0  0
    2.0894    0.6950   -1.2473 C   0  0  0  0  0  0
    1.5825    2.1299   -1.4564 C   0  0  0  0  0  0
    1.9133    0.8159    1.2984 C   0  0  0  0  0  0
   -2.4918   -1.2487    2.2553 H   0  0  0  0  0  0
   -2.7603   -0.7913    0.5729 H   0  0  0  0  0  0
   -2.2222    0.4220    1.7389 H   0  0  0  0  0  0
   -0.0683   -0.8096    2.0545 H   0  0  0  0  0  0
   -0.5531   -2.0191    0.8852 H   0  0  0  0  0  0
   -0.4202    0.9174    0.1257 H   0  0  0  0  0  0
   -0.1640   -1.5764   -1.6376 H   0  0  0  0  0  0
   -0.3989    0.0895   -2.1816 H   0  0  0  0  0  0
   -1.6791   -0.7392   -1.3103 H   0  0  0  0  0  0
    1.8253   -1.9092    1.0588 H   0  0  0  0  0  0
    1.7688   -2.0349   -0.6914 H   0  0  0  0  0  0
    4.1080   -0.9363    0.9484 H   0  0  0  0  0  0
    4.0440   -2.4779    0.1120 H   0  0  0  0  0  0
    5.2907   -0.7359   -1.2266 H   0  0  0  0  0  0
    3.8729   -1.3391   -2.0792 H   0  0  0  0  0  0
    4.0566    1.2959   -0.5250 H   0  0  0  0  0  0
    3.9470    1.1220   -2.2648 H   0  0  0  0  0  0
    1.7454    0.0941   -2.0995 H   0  0  0  0  0  0
    1.9504    2.8018   -0.6737 H   0  0  0  0  0  0
    0.4908    2.1927   -1.4617 H   0  0  0  0  0  0
    1.9391    2.5218   -2.4151 H   0  0  0  0  0  0
    2.9785    1.0566    1.3251 H   0  0  0  0  0  0
    1.6910    0.2665    2.2175 H   0  0  0  0  0  0
    1.3631    1.7610    1.3404 H   0  0  0  0  0  0
  1  2  1  0  0  0
  1 13  1  0  0  0
  1 14  1  0  0  0
  1 15  1  0  0  0
  2  3  1  0  0  0
  2 16  1  0  0  0
  2 17  1  0  0  0
  3  4  1  0  0  0
  3  5  1  0  0  0
  3 18  1  0  0  0
  4 19  1  0  0  0
  4 20  1  0  0  0
  4 21  1  0  0  0
  5 10  1  0  0  0
  5  6  1  0  0  0
  5 12  1  0  0  0
  6  7  1  0  0  0
  6 22  1  0  0  0
  6 23  1  0  0  0
  7  8  1  0  0  0
  7 24  1  0  0  0
  7 25  1  0  0  0
  8  9  1  0  0  0
  8 26  1  0  0  0
  8 27  1  0  0  0
  9 10  1  0  0  0
  9 28  1  0  0  0
  9 29  1  0  0  0
 10 11  1  0  0  0
 10 30  1  0  0  0
 11 31  1  0  0  0
 11 32  1  0  0  0
 11 33  1  0  0  0
 12 34  1  0  0  0
 12 35  1  0  0  0
 12 36  1  0  0  0
M  END
>  <i_m_Spin_multiplicity> (1)
1

>  <s_j_Task> (1)
Single Point

>  <s_j_QM_Method> (1)
DFT(b3lyp-d3)

>  <s_j_QM_Basis> (1)
cc-pvtz(-f)

>  <i_j_Number_of_canonical_orbitals> (1)
486

>  <i_j_Geometry_convergence_category> (1)
1

>  <r_j_Gas_Phase_Energy> (1)
-471.943064411749

>  <r_j_Final_Energy> (1)
-471.943064411749

>  <r_j_HOMO> (1)
-0.281000856307631

>  <r_j_LUMO> (1)
0.0259580502881986

>  <r_j_Polarizability> (1)
139.11726513481

>  <r_j_QM_Dipole_(debye)> (1)
0.0883742287626744

>  <r_j_QM_Dipole_X_(debye)> (1)
0.0450967675932953

>  <r_j_QM_Dipole_Y_(debye)> (1)
-0.0757848530644514

>  <r_j_QM_Dipole_Z_(debye)> (1)
0.00573950416267296

>  <r_j_Lowest_Frequency_(cm-1)> (1)
95.7131834543072

>  <r_j_Highest_Frequency_(cm-1)> (1)
3069.23763884688

>  <r_j_2nd_Lowest_Frequency_(cm-1)> (1)
131.281314311435

>  <i_j_Num_Negative_Frequencies> (1)
0

>  <r_j_Zero_Point_Energy_(kcal/mol)> (1)
212.825319967677

>  <r_j_Entropy_(cal/mol/K)_298.15K_1.00E+00atm> (1)
107.208365445944

>  <r_j_Enthalpy_(kcal/mol)_298.15K_1.00E+00atm> (1)
8.73281065927785

>  <r_j_Free_Energy_(kcal/mol)_298.15K_1.00E+00atm> (1)
-23.2313634984302

>  <r_j_Internal_Energy_(kcal/mol)_298.15K_1.00E+00atm> (1)
8.14032507045058

>  <r_j_Heat_Capacity_(cal/mol/K)_298.15K_1.00E+00atm> (1)
53.9369612528449

>  <r_j_ln(Q)_298.15K_1.00E+00atm> (1)
39.2100060094504

>  <r_j_Total_Internal_Energy_(au)_298.15K_1.00E+00atm> (1)
-471.590933239867

>  <r_j_Total_Enthalpy_(au)_298.15K_1.00E+00atm> (1)
-471.589989053975

>  <r_j_Total_Free_Energy_(au)_298.15K_1.00E+00atm> (1)
-471.640927208195

>  <r_lp_tautomer_probability> (1)
1

>  <r_epik_Ionization_Penalty> (1)
  0.0000

>  <r_epik_Ionization_Penalty_Charging> (1)
  0.0000

>  <r_epik_Ionization_Penalty_Neutral> (1)
  0.0000

>  <r_epik_State_Penalty> (1)
  0.0000

>  <r_epik_Charging_Adjusted_Penalty> (1)
0

>  <i_epik_Tot_Q> (1)
0

>  <i_epik_Tot_abs_Q> (1)
0

>  <s_lp_Force_Field> (1)
S-OPLS

>  <r_lp_Energy> (1)
24.5257

>  <b_lp_Chiralities_Consistent> (1)
1

$$$$
