713_Formamide
                    3D
 Schrodinger Suite 2021-3.
  6  5  0  0  1  0            999 V2000
    0.0261    0.0321    0.0000 C   0  0  0  0  0  0
   -0.6488    1.0442    0.0000 O   0  0  0  0  0  0
    1.3874    0.0058    0.0000 N   0  0  0  0  0  0
   -0.4097   -0.9882    0.0000 H   0  0  0  0  0  0
    1.8910    0.8806    0.0000 H   0  0  0  0  0  0
    1.9022   -0.8601    0.0000 H   0  0  0  0  0  0
  1  2  2  0  0  0
  1  3  1  0  0  0
  1  4  1  0  0  0
  3  5  1  0  0  0
  3  6  1  0  0  0
M  END
>  <i_m_Spin_multiplicity> (1)
1

>  <s_j_Task> (1)
Single Point

>  <s_j_QM_Method> (1)
DFT(b3lyp-d3)

>  <s_j_QM_Basis> (1)
cc-pvtz(-f)

>  <i_j_Number_of_canonical_orbitals> (1)
96

>  <i_j_Geometry_convergence_category> (1)
3

>  <r_j_Gas_Phase_Energy> (1)
-169.961169479398

>  <r_j_Final_Energy> (1)
-169.961169479398

>  <r_j_HOMO> (1)
-0.265239316604066

>  <r_j_LUMO> (1)
0.0125726110354149

>  <r_j_Polarizability> (1)
23.8097661517826

>  <r_j_QM_Dipole_(debye)> (1)
3.9216910841002

>  <r_j_QM_Dipole_X_(debye)> (1)
3.1342498851987

>  <r_j_QM_Dipole_Y_(debye)> (1)
-2.35714628655986

>  <r_j_QM_Dipole_Z_(debye)> (1)
-1.81604275319668e-07

>  <r_j_Lowest_Frequency_(cm-1)> (1)
238.338773479834

>  <r_j_Highest_Frequency_(cm-1)> (1)
3674.20702069567

>  <r_j_2nd_Lowest_Frequency_(cm-1)> (1)
585.067817552486

>  <i_j_Num_Negative_Frequencies> (1)
0

>  <r_j_Zero_Point_Energy_(kcal/mol)> (1)
28.2710509118099

>  <r_j_Entropy_(cal/mol/K)_298.15K_1.00E+00atm> (1)
61.3973951718995

>  <r_j_Enthalpy_(kcal/mol)_298.15K_1.00E+00atm> (1)
2.92290530545077

>  <r_j_Free_Energy_(kcal/mol)_298.15K_1.00E+00atm> (1)
-15.382728065051

>  <r_j_Internal_Energy_(kcal/mol)_298.15K_1.00E+00atm> (1)
2.3304197166235

>  <r_j_Heat_Capacity_(cal/mol/K)_298.15K_1.00E+00atm> (1)
10.6825163452917

>  <r_j_ln(Q)_298.15K_1.00E+00atm> (1)
25.9630417264639

>  <r_j_Total_Internal_Energy_(au)_298.15K_1.00E+00atm> (1)
-169.912402931495

>  <r_j_Total_Enthalpy_(au)_298.15K_1.00E+00atm> (1)
-169.911458745603

>  <r_j_Total_Free_Energy_(au)_298.15K_1.00E+00atm> (1)
-169.940630629448

>  <r_lp_tautomer_probability> (1)
1

>  <r_epik_Ionization_Penalty> (1)
  0.0000

>  <r_epik_Ionization_Penalty_Charging> (1)
  0.0000

>  <r_epik_Ionization_Penalty_Neutral> (1)
  0.0000

>  <r_epik_State_Penalty> (1)
  0.0000

>  <r_epik_Charging_Adjusted_Penalty> (1)
0

>  <i_epik_Tot_Q> (1)
0

>  <i_epik_Tot_abs_Q> (1)
0

>  <s_lp_Force_Field> (1)
S-OPLS

>  <r_lp_Energy> (1)
-2.191612

>  <b_lp_Chiralities_Consistent> (1)
1

$$$$
