7247_1,2,4-trimethylbenzene
                    3D
 Schrodinger Suite 2021-3.
 21 21  0  0  1  0            999 V2000
   -0.0322    0.0014    0.0000 C   0  0  0  0  0  0
    1.4787   -0.0009    0.0000 C   0  0  0  0  0  0
    2.2118    1.1864    0.0000 C   0  0  0  0  0  0
    3.6135    1.2097    0.0000 C   0  0  0  0  0  0
    4.3178   -0.0080    0.0000 C   0  0  0  0  0  0
    3.5817   -1.2015    0.0000 C   0  0  0  0  0  0
    2.1915   -1.2059    0.0000 C   0  0  0  0  0  0
    5.8301   -0.0607    0.0000 C   0  0  0  0  0  0
    4.3086    2.5551    0.0000 C   0  0  0  0  0  0
   -0.4343    1.0186    0.0000 H   0  0  0  0  0  0
   -0.4301   -0.5155    0.8811 H   0  0  0  0  0  0
   -0.4301   -0.5155   -0.8811 H   0  0  0  0  0  0
    1.6774    2.1352    0.0000 H   0  0  0  0  0  0
    4.1164   -2.1486    0.0000 H   0  0  0  0  0  0
    1.6540   -2.1513   -0.0001 H   0  0  0  0  0  0
    6.1845   -1.0952    0.0001 H   0  0  0  0  0  0
    6.2556    0.4332    0.8814 H   0  0  0  0  0  0
    6.2556    0.4331   -0.8814 H   0  0  0  0  0  0
    5.3965    2.4725   -0.0001 H   0  0  0  0  0  0
    4.0220    3.1415    0.8807 H   0  0  0  0  0  0
    4.0218    3.1415   -0.8807 H   0  0  0  0  0  0
  1  2  1  0  0  0
  1 10  1  0  0  0
  1 11  1  0  0  0
  1 12  1  0  0  0
  2  7  1  0  0  0
  2  3  2  0  0  0
  3  4  1  0  0  0
  3 13  1  0  0  0
  4  5  2  0  0  0
  4  9  1  0  0  0
  5  6  1  0  0  0
  5  8  1  0  0  0
  6  7  2  0  0  0
  6 14  1  0  0  0
  7 15  1  0  0  0
  8 16  1  0  0  0
  8 17  1  0  0  0
  8 18  1  0  0  0
  9 19  1  0  0  0
  9 20  1  0  0  0
  9 21  1  0  0  0
M  END
>  <i_m_Spin_multiplicity> (1)
1

>  <s_j_Task> (1)
Single Point

>  <s_j_QM_Method> (1)
DFT(b3lyp-d3)

>  <s_j_QM_Basis> (1)
cc-pvtz(-f)

>  <i_j_Number_of_canonical_orbitals> (1)
309

>  <i_j_Geometry_convergence_category> (1)
0

>  <r_j_Gas_Phase_Energy> (1)
-350.325820504135

>  <r_j_Final_Energy> (1)
-350.325820504135

>  <r_j_HOMO> (1)
-0.228818910959845

>  <r_j_LUMO> (1)
-0.00803254444505548

>  <r_j_Polarizability> (1)
103.919922822208

>  <r_j_QM_Dipole_(debye)> (1)
0.332513326510999

>  <r_j_QM_Dipole_X_(debye)> (1)
0.143351524068047

>  <r_j_QM_Dipole_Y_(debye)> (1)
0.300025753093322

>  <r_j_QM_Dipole_Z_(debye)> (1)
-1.83183905227244e-05

>  <r_j_Lowest_Frequency_(cm-1)> (1)
128.416982666582

>  <r_j_Highest_Frequency_(cm-1)> (1)
3124.10376112781

>  <r_j_2nd_Lowest_Frequency_(cm-1)> (1)
140.157167505759

>  <i_j_Num_Negative_Frequencies> (1)
0

>  <r_j_Zero_Point_Energy_(kcal/mol)> (1)
114.509292117424

>  <r_j_Entropy_(cal/mol/K)_298.15K_1.00E+00atm> (1)
90.3331557166449

>  <r_j_Enthalpy_(kcal/mol)_298.15K_1.00E+00atm> (1)
6.18968196745587

>  <r_j_Free_Energy_(kcal/mol)_298.15K_1.00E+00atm> (1)
-20.7431484094618

>  <r_j_Internal_Energy_(kcal/mol)_298.15K_1.00E+00atm> (1)
5.5971963786286

>  <r_j_Heat_Capacity_(cal/mol/K)_298.15K_1.00E+00atm> (1)
34.6188790439025

>  <r_j_ln(Q)_298.15K_1.00E+00atm> (1)
35.010384726014

>  <r_j_Total_Internal_Energy_(au)_298.15K_1.00E+00atm> (1)
-350.134418630158

>  <r_j_Total_Enthalpy_(au)_298.15K_1.00E+00atm> (1)
-350.133474444266

>  <r_j_Total_Free_Energy_(au)_298.15K_1.00E+00atm> (1)
-350.176394641752

>  <r_lp_tautomer_probability> (1)
1

>  <r_epik_Ionization_Penalty> (1)
  0.0000

>  <r_epik_Ionization_Penalty_Charging> (1)
  0.0000

>  <r_epik_Ionization_Penalty_Neutral> (1)
  0.0000

>  <r_epik_State_Penalty> (1)
  0.0000

>  <r_epik_Charging_Adjusted_Penalty> (1)
0

>  <i_epik_Tot_Q> (1)
0

>  <i_epik_Tot_abs_Q> (1)
0

>  <s_lp_Force_Field> (1)
S-OPLS

>  <r_lp_Energy> (1)
4.60272

>  <b_lp_Chiralities_Consistent> (1)
1

$$$$
