7261_2,4-Toluenediamine
                    3D
 Schrodinger Suite 2021-3.
 19 19  0  0  1  0            999 V2000
   -0.0426   -0.0458    0.0000 C   0  0  0  0  0  0
    1.4704    0.0294    0.0000 C   0  0  0  0  0  0
    2.1945    1.2457    0.0000 C   0  0  0  0  0  0
    3.6001    1.2197    0.0000 C   0  0  0  0  0  0
    4.3150    0.0168    0.0000 C   0  0  0  0  0  0
    3.5983   -1.1938    0.0000 C   0  0  0  0  0  0
    2.2097   -1.1572    0.0000 C   0  0  0  0  0  0
    5.6960    0.0190    0.0000 N   0  0  0  0  0  0
    1.5589    2.4738    0.0000 N   0  0  0  0  0  0
   -0.5344    0.9312   -0.0001 H   0  0  0  0  0  0
   -0.4156   -0.5799    0.8822 H   0  0  0  0  0  0
   -0.4155   -0.5801   -0.8821 H   0  0  0  0  0  0
    4.1445    2.1627    0.0000 H   0  0  0  0  0  0
    4.1281   -2.1422    0.0000 H   0  0  0  0  0  0
    1.6647   -2.0995    0.0000 H   0  0  0  0  0  0
    6.2115   -0.8425    0.0000 H   0  0  0  0  0  0
    6.2143    0.8789    0.0000 H   0  0  0  0  0  0
    2.0951    3.3226    0.0000 H   0  0  0  0  0  0
    0.5599    2.5535    0.0000 H   0  0  0  0  0  0
  1  2  1  0  0  0
  1 10  1  0  0  0
  1 11  1  0  0  0
  1 12  1  0  0  0
  2  7  1  0  0  0
  2  3  2  0  0  0
  3  4  1  0  0  0
  3  9  1  0  0  0
  4  5  2  0  0  0
  4 13  1  0  0  0
  5  6  1  0  0  0
  5  8  1  0  0  0
  6  7  2  0  0  0
  6 14  1  0  0  0
  7 15  1  0  0  0
  8 16  1  0  0  0
  8 17  1  0  0  0
  9 18  1  0  0  0
  9 19  1  0  0  0
M  END
>  <i_m_Spin_multiplicity> (1)
1

>  <s_j_Task> (1)
Single Point

>  <s_j_QM_Method> (1)
DFT(b3lyp-d3)

>  <s_j_QM_Basis> (1)
cc-pvtz(-f)

>  <i_j_Number_of_canonical_orbitals> (1)
291

>  <i_j_Geometry_convergence_category> (1)
0

>  <r_j_Gas_Phase_Energy> (1)
-382.412533713203

>  <r_j_Final_Energy> (1)
-382.412533713203

>  <r_j_HOMO> (1)
-0.175722735953857

>  <r_j_LUMO> (1)
0.0129188403862199

>  <r_j_Polarizability> (1)
97.7526052518674

>  <r_j_QM_Dipole_(debye)> (1)
1.71155536879256

>  <r_j_QM_Dipole_X_(debye)> (1)
0.798424606517645

>  <r_j_QM_Dipole_Y_(debye)> (1)
1.51391542800121

>  <r_j_QM_Dipole_Z_(debye)> (1)
-7.07791034407217e-05

>  <r_j_Lowest_Frequency_(cm-1)> (1)
-460.955307950998

>  <r_j_Highest_Frequency_(cm-1)> (1)
3724.1454848079

>  <r_j_2nd_Lowest_Frequency_(cm-1)> (1)
-454.228693592787

>  <i_j_Num_Negative_Frequencies> (1)
3

>  <r_j_Zero_Point_Energy_(kcal/mol)> (1)
99.271138124684

>  <r_j_Entropy_(cal/mol/K)_298.15K_1.00E+00atm> (1)
84.6744860906283

>  <r_j_Enthalpy_(kcal/mol)_298.15K_1.00E+00atm> (1)
5.35800124583283

>  <r_j_Free_Energy_(kcal/mol)_298.15K_1.00E+00atm> (1)
-19.887696782088

>  <r_j_Internal_Energy_(kcal/mol)_298.15K_1.00E+00atm> (1)
4.76551565700555

>  <r_j_Heat_Capacity_(cal/mol/K)_298.15K_1.00E+00atm> (1)
30.6255003064845

>  <r_j_ln(Q)_298.15K_1.00E+00atm> (1)
33.5665493931293

>  <r_j_Total_Internal_Energy_(au)_298.15K_1.00E+00atm> (1)
-382.246740751095

>  <r_j_Total_Enthalpy_(au)_298.15K_1.00E+00atm> (1)
-382.245796565203

>  <r_j_Total_Free_Energy_(au)_298.15K_1.00E+00atm> (1)
-382.286028146135

>  <r_epik_Ionization_Penalty> (1)
  0.0129

>  <r_epik_Ionization_Penalty_Charging> (1)
  0.0000

>  <r_epik_Ionization_Penalty_Neutral> (1)
  0.0129

>  <r_epik_State_Penalty> (1)
  0.0074

>  <r_epik_Charging_Adjusted_Penalty> (1)
0.0073697

>  <i_epik_Tot_Q> (1)
0

>  <i_epik_Tot_abs_Q> (1)
0

>  <s_lp_Force_Field> (1)
S-OPLS

>  <r_lp_Energy> (1)
5.30144

>  <b_lp_Chiralities_Consistent> (1)
1

$$$$
