7282_3-methylpentane
                    3D
 Schrodinger Suite 2021-3.
 20 19  0  0  1  0            999 V2000
   -0.6236    1.5072   -0.0021 C   0  0  0  0  0  0
   -0.0618    0.0816   -0.0523 C   0  0  0  0  0  0
    1.4775   -0.0040   -0.0396 C   0  0  0  0  0  0
    2.0985    0.7102   -1.2500 C   0  0  0  0  0  0
    1.9715   -1.4643    0.0185 C   0  0  0  0  0  0
    1.5836   -2.2325    1.2871 C   0  0  0  0  0  0
   -1.7151    1.4956    0.0828 H   0  0  0  0  0  0
   -0.3718    2.0804   -0.8994 H   0  0  0  0  0  0
   -0.2293    2.0541    0.8625 H   0  0  0  0  0  0
   -0.4599   -0.4763    0.8031 H   0  0  0  0  0  0
   -0.4353   -0.4307   -0.9511 H   0  0  0  0  0  0
    1.8315    0.5029    0.8726 H   0  0  0  0  0  0
    1.7435    0.2624   -2.1868 H   0  0  0  0  0  0
    3.1908    0.6289   -1.2366 H   0  0  0  0  0  0
    1.8486    1.7748   -1.2741 H   0  0  0  0  0  0
    1.5984   -2.0001   -0.8664 H   0  0  0  0  0  0
    3.0659   -1.4625   -0.0704 H   0  0  0  0  0  0
    2.0480   -3.2239    1.3014 H   0  0  0  0  0  0
    0.5020   -2.3785    1.3672 H   0  0  0  0  0  0
    1.9134   -1.6977    2.1856 H   0  0  0  0  0  0
  1  2  1  0  0  0
  1  7  1  0  0  0
  1  8  1  0  0  0
  1  9  1  0  0  0
  2  3  1  0  0  0
  2 10  1  0  0  0
  2 11  1  0  0  0
  3  4  1  0  0  0
  3  5  1  0  0  0
  3 12  1  0  0  0
  4 13  1  0  0  0
  4 14  1  0  0  0
  4 15  1  0  0  0
  5  6  1  0  0  0
  5 16  1  0  0  0
  5 17  1  0  0  0
  6 18  1  0  0  0
  6 19  1  0  0  0
  6 20  1  0  0  0
M  END
>  <i_m_Spin_multiplicity> (1)
1

>  <s_j_Task> (1)
Single Point

>  <s_j_QM_Method> (1)
DFT(b3lyp-d3)

>  <s_j_QM_Basis> (1)
cc-pvtz(-f)

>  <i_j_Number_of_canonical_orbitals> (1)
263

>  <i_j_Geometry_convergence_category> (1)
0

>  <r_j_Gas_Phase_Energy> (1)
-237.181521618799

>  <r_j_Final_Energy> (1)
-237.181521618799

>  <r_j_HOMO> (1)
-0.310966482376192

>  <r_j_LUMO> (1)
0.0263096762654736

>  <r_j_Polarizability> (1)
74.9018564620927

>  <r_j_QM_Dipole_(debye)> (1)
0.0652821904360354

>  <r_j_QM_Dipole_X_(debye)> (1)
0.0125858913067691

>  <r_j_QM_Dipole_Y_(debye)> (1)
-0.0375782903304292

>  <r_j_QM_Dipole_Z_(debye)> (1)
0.0518770838037659

>  <r_j_Lowest_Frequency_(cm-1)> (1)
128.505123047992

>  <r_j_Highest_Frequency_(cm-1)> (1)
3060.36441099496

>  <r_j_2nd_Lowest_Frequency_(cm-1)> (1)
152.022765830005

>  <i_j_Num_Negative_Frequencies> (1)
0

>  <r_j_Zero_Point_Energy_(kcal/mol)> (1)
118.224363881443

>  <r_j_Entropy_(cal/mol/K)_298.15K_1.00E+00atm> (1)
83.711385062137

>  <r_j_Enthalpy_(kcal/mol)_298.15K_1.00E+00atm> (1)
5.47128207453924

>  <r_j_Free_Energy_(kcal/mol)_298.15K_1.00E+00atm> (1)
-19.4872673817369

>  <r_j_Internal_Energy_(kcal/mol)_298.15K_1.00E+00atm> (1)
4.87879648571196

>  <r_j_Heat_Capacity_(cal/mol/K)_298.15K_1.00E+00atm> (1)
29.1609113945521

>  <r_j_ln(Q)_298.15K_1.00E+00atm> (1)
32.8907027431818

>  <r_j_Total_Internal_Energy_(au)_298.15K_1.00E+00atm> (1)
-236.985344244189

>  <r_j_Total_Enthalpy_(au)_298.15K_1.00E+00atm> (1)
-236.984400058297

>  <r_j_Total_Free_Energy_(au)_298.15K_1.00E+00atm> (1)
-237.02417403885

>  <r_lp_tautomer_probability> (1)
1

>  <r_epik_Ionization_Penalty> (1)
  0.0000

>  <r_epik_Ionization_Penalty_Charging> (1)
  0.0000

>  <r_epik_Ionization_Penalty_Neutral> (1)
  0.0000

>  <r_epik_State_Penalty> (1)
  0.0000

>  <r_epik_Charging_Adjusted_Penalty> (1)
0

>  <i_epik_Tot_Q> (1)
0

>  <i_epik_Tot_abs_Q> (1)
0

>  <s_lp_Force_Field> (1)
S-OPLS

>  <r_lp_Energy> (1)
3.147479

>  <b_lp_Chiralities_Consistent> (1)
1

$$$$
