7284_2-Methylbutanal
                    3D
 Schrodinger Suite 2021-3.
 16 15  0  0  1  0            999 V2000
   -0.5717    1.4615   -0.0606 C   0  0  0  0  0  0
   -0.0015    0.0428    0.0380 C   0  0  0  0  0  0
    1.5418   -0.0035    0.0205 C   0  0  0  0  0  0
    2.0619   -1.4513   -0.0281 C   0  0  0  0  0  0
    2.0823    0.6751    1.2637 C   0  0  0  0  0  0
    2.7746    1.6680    1.2777 O   0  0  0  0  0  0
   -1.6658    1.4481   -0.0486 H   0  0  0  0  0  0
   -0.2504    1.9481   -0.9878 H   0  0  0  0  0  0
   -0.2347    2.0900    0.7705 H   0  0  0  0  0  0
   -0.3620   -0.4452    0.9546 H   0  0  0  0  0  0
   -0.3721   -0.5671   -0.7950 H   0  0  0  0  0  0
    1.9179    0.5606   -0.8410 H   0  0  0  0  0  0
    3.1546   -1.4838   -0.0743 H   0  0  0  0  0  0
    1.6686   -1.9680   -0.9089 H   0  0  0  0  0  0
    1.7429   -2.0133    0.8576 H   0  0  0  0  0  0
    1.7814    0.1735    2.2170 H   0  0  0  0  0  0
  1  2  1  0  0  0
  1  7  1  0  0  0
  1  8  1  0  0  0
  1  9  1  0  0  0
  2  3  1  0  0  0
  2 10  1  0  0  0
  2 11  1  0  0  0
  3  4  1  0  0  0
  3  5  1  0  0  0
  3 12  1  0  0  0
  4 13  1  0  0  0
  4 14  1  0  0  0
  4 15  1  0  0  0
  5  6  2  0  0  0
  5 16  1  0  0  0
M  END
>  <i_m_Spin_multiplicity> (1)
1

>  <s_j_Task> (1)
Single Point

>  <s_j_QM_Method> (1)
DFT(b3lyp-d3)

>  <s_j_QM_Basis> (1)
cc-pvtz(-f)

>  <i_j_Number_of_canonical_orbitals> (1)
227

>  <i_j_Geometry_convergence_category> (1)
0

>  <r_j_Gas_Phase_Energy> (1)
-271.880447897192

>  <r_j_Final_Energy> (1)
-271.880447897192

>  <r_j_HOMO> (1)
-0.259086355573816

>  <r_j_LUMO> (1)
-0.0366200400313941

>  <r_j_Polarizability> (1)
63.2138727732834

>  <r_j_QM_Dipole_(debye)> (1)
2.85509824731939

>  <r_j_QM_Dipole_X_(debye)> (1)
-1.69967560201795

>  <r_j_QM_Dipole_Y_(debye)> (1)
-2.18235337123978

>  <r_j_QM_Dipole_Z_(debye)> (1)
-0.707122770662596

>  <r_j_Lowest_Frequency_(cm-1)> (1)
111.550757849881

>  <r_j_Highest_Frequency_(cm-1)> (1)
3061.06382652944

>  <r_j_2nd_Lowest_Frequency_(cm-1)> (1)
149.911207871933

>  <i_j_Num_Negative_Frequencies> (1)
0

>  <r_j_Zero_Point_Energy_(kcal/mol)> (1)
88.3805078812552

>  <r_j_Entropy_(cal/mol/K)_298.15K_1.00E+00atm> (1)
81.7580629675428

>  <r_j_Enthalpy_(kcal/mol)_298.15K_1.00E+00atm> (1)
5.09771674941559

>  <r_j_Free_Energy_(kcal/mol)_298.15K_1.00E+00atm> (1)
-19.2784497243573

>  <r_j_Internal_Energy_(kcal/mol)_298.15K_1.00E+00atm> (1)
4.50523116058832

>  <r_j_Heat_Capacity_(cal/mol/K)_298.15K_1.00E+00atm> (1)
25.6782979820628

>  <r_j_ln(Q)_298.15K_1.00E+00atm> (1)
32.5382593060461

>  <r_j_Total_Internal_Energy_(au)_298.15K_1.00E+00atm> (1)
-271.73242504896

>  <r_j_Total_Enthalpy_(au)_298.15K_1.00E+00atm> (1)
-271.731480863068

>  <r_j_Total_Free_Energy_(au)_298.15K_1.00E+00atm> (1)
-271.770326757256

>  <r_lp_tautomer_probability> (1)
1

>  <r_epik_Ionization_Penalty> (1)
  0.0000

>  <r_epik_Ionization_Penalty_Charging> (1)
  0.0000

>  <r_epik_Ionization_Penalty_Neutral> (1)
  0.0000

>  <r_epik_State_Penalty> (1)
  0.0000

>  <r_epik_Charging_Adjusted_Penalty> (1)
0

>  <i_epik_Tot_Q> (1)
0

>  <i_epik_Tot_abs_Q> (1)
0

>  <s_lp_Force_Field> (1)
S-OPLS

>  <r_lp_Energy> (1)
1.87748

>  <b_lp_Chiralities_Consistent> (1)
1

$$$$
