7304_1-Methylpyrrole
                    3D
 Schrodinger Suite 2021-3.
 13 13  0  0  1  0            999 V2000
    0.0073   -0.0067    0.0000 C   0  0  0  0  0  0
    1.4571    0.0019    0.0000 N   0  0  0  0  0  0
    2.2580    1.1211    0.0000 C   0  0  0  0  0  0
    3.5744    0.7131    0.0000 C   0  0  0  0  0  0
    3.5731   -0.7099    0.0000 C   0  0  0  0  0  0
    2.2563   -1.1178    0.0000 C   0  0  0  0  0  0
   -0.3580    1.0219    0.0000 H   0  0  0  0  0  0
   -0.3810   -0.5129    0.8901 H   0  0  0  0  0  0
   -0.3810   -0.5129   -0.8901 H   0  0  0  0  0  0
    1.8209    2.1090    0.0000 H   0  0  0  0  0  0
    4.4380    1.3630    0.0000 H   0  0  0  0  0  0
    4.4363   -1.3607    0.0000 H   0  0  0  0  0  0
    1.8188   -2.1057    0.0000 H   0  0  0  0  0  0
  1  2  1  0  0  0
  1  7  1  0  0  0
  1  8  1  0  0  0
  1  9  1  0  0  0
  2  6  1  0  0  0
  2  3  1  0  0  0
  3  4  2  0  0  0
  3 10  1  0  0  0
  4  5  1  0  0  0
  4 11  1  0  0  0
  5  6  2  0  0  0
  5 12  1  0  0  0
  6 13  1  0  0  0
M  END
>  <i_m_Spin_multiplicity> (1)
1

>  <s_j_Task> (1)
Single Point

>  <s_j_QM_Method> (1)
DFT(b3lyp-d3)

>  <s_j_QM_Basis> (1)
cc-pvtz(-f)

>  <i_j_Number_of_canonical_orbitals> (1)
200

>  <i_j_Geometry_convergence_category> (1)
0

>  <r_j_Gas_Phase_Energy> (1)
-249.567654689489

>  <r_j_Final_Energy> (1)
-249.567654689489

>  <r_j_HOMO> (1)
-0.211266013228782

>  <r_j_LUMO> (1)
0.0251953052747212

>  <r_j_Polarizability> (1)
61.7916339891021

>  <r_j_QM_Dipole_(debye)> (1)
2.13436377639314

>  <r_j_QM_Dipole_X_(debye)> (1)
-2.13423188664688

>  <r_j_QM_Dipole_Y_(debye)> (1)
0.0237272794125953

>  <r_j_QM_Dipole_Z_(debye)> (1)
1.45108292049895e-05

>  <r_j_Lowest_Frequency_(cm-1)> (1)
151.146978571245

>  <r_j_Highest_Frequency_(cm-1)> (1)
3215.1828918189

>  <r_j_2nd_Lowest_Frequency_(cm-1)> (1)
226.910546924075

>  <i_j_Num_Negative_Frequencies> (1)
0

>  <r_j_Zero_Point_Energy_(kcal/mol)> (1)
68.8639316863865

>  <r_j_Entropy_(cal/mol/K)_298.15K_1.00E+00atm> (1)
73.2490783534221

>  <r_j_Enthalpy_(kcal/mol)_298.15K_1.00E+00atm> (1)
3.95065675598015

>  <r_j_Free_Energy_(kcal/mol)_298.15K_1.00E+00atm> (1)
-17.8885559550927

>  <r_j_Internal_Energy_(kcal/mol)_298.15K_1.00E+00atm> (1)
3.35817116715287

>  <r_j_Heat_Capacity_(cal/mol/K)_298.15K_1.00E+00atm> (1)
19.8319056856314

>  <r_j_ln(Q)_298.15K_1.00E+00atm> (1)
30.1923899794762

>  <r_j_Total_Internal_Energy_(au)_298.15K_1.00E+00atm> (1)
-249.452561441807

>  <r_j_Total_Enthalpy_(au)_298.15K_1.00E+00atm> (1)
-249.451617255915

>  <r_j_Total_Free_Energy_(au)_298.15K_1.00E+00atm> (1)
-249.486420256914

>  <r_lp_tautomer_probability> (1)
1

>  <r_epik_Ionization_Penalty> (1)
  0.0000

>  <r_epik_Ionization_Penalty_Charging> (1)
  0.0000

>  <r_epik_Ionization_Penalty_Neutral> (1)
  0.0000

>  <r_epik_State_Penalty> (1)
  0.0000

>  <r_epik_Charging_Adjusted_Penalty> (1)
0

>  <i_epik_Tot_Q> (1)
0

>  <i_epik_Tot_abs_Q> (1)
0

>  <s_lp_Force_Field> (1)
S-OPLS

>  <r_lp_Energy> (1)
0.621472

>  <b_lp_Chiralities_Consistent> (1)
1

$$$$
