7351_Isobutyl isobutyrate
                    3D
 Schrodinger Suite 2021-3.
 26 25  0  0  1  0            999 V2000
    0.0313    1.9003    1.4907 C   0  0  0  0  0  0
   -0.5065    1.3919    0.1471 C   0  0  0  0  0  0
   -2.0277    1.5676    0.0473 C   0  0  0  0  0  0
   -0.1449   -0.0731   -0.0751 C   0  0  0  0  0  0
    1.2962   -0.1797   -0.0938 O   0  0  0  0  0  0
    1.8011   -1.4332   -0.1550 C   0  0  0  0  0  0
    1.1113   -2.4287   -0.2172 O   0  0  0  0  0  0
    3.3222   -1.4081   -0.1021 C   0  0  0  0  0  0
    3.8983   -2.7679   -0.5017 C   0  0  0  0  0  0
    3.7750   -0.9781    1.3077 C   0  0  0  0  0  0
   -0.4246    1.3489    2.3223 H   0  0  0  0  0  0
   -0.1978    2.9621    1.6278 H   0  0  0  0  0  0
    1.1150    1.7717    1.5536 H   0  0  0  0  0  0
   -0.0333    1.9695   -0.6589 H   0  0  0  0  0  0
   -2.5404    0.9905    0.8263 H   0  0  0  0  0  0
   -2.4112    1.2361   -0.9236 H   0  0  0  0  0  0
   -2.3051    2.6182    0.1776 H   0  0  0  0  0  0
   -0.5421   -0.7106    0.7236 H   0  0  0  0  0  0
   -0.5398   -0.4506   -1.0250 H   0  0  0  0  0  0
    3.6490   -0.6379   -0.8121 H   0  0  0  0  0  0
    3.5890   -3.0499   -1.5118 H   0  0  0  0  0  0
    3.5446   -3.5470    0.1793 H   0  0  0  0  0  0
    4.9918   -2.7421   -0.4673 H   0  0  0  0  0  0
    3.3666    0.0003    1.5727 H   0  0  0  0  0  0
    4.8670   -0.9234    1.3537 H   0  0  0  0  0  0
    3.4417   -1.7059    2.0555 H   0  0  0  0  0  0
  1  2  1  0  0  0
  1 11  1  0  0  0
  1 12  1  0  0  0
  1 13  1  0  0  0
  2  3  1  0  0  0
  2  4  1  0  0  0
  2 14  1  0  0  0
  3 15  1  0  0  0
  3 16  1  0  0  0
  3 17  1  0  0  0
  4  5  1  0  0  0
  4 18  1  0  0  0
  4 19  1  0  0  0
  5  6  1  0  0  0
  6  7  2  0  0  0
  6  8  1  0  0  0
  8  9  1  0  0  0
  8 10  1  0  0  0
  8 20  1  0  0  0
  9 21  1  0  0  0
  9 22  1  0  0  0
  9 23  1  0  0  0
 10 24  1  0  0  0
 10 25  1  0  0  0
 10 26  1  0  0  0
M  END
>  <i_m_Spin_multiplicity> (1)
1

>  <s_j_Task> (1)
Single Point

>  <s_j_QM_Method> (1)
DFT(b3lyp-d3)

>  <s_j_QM_Basis> (1)
cc-pvtz(-f)

>  <i_j_Number_of_canonical_orbitals> (1)
373

>  <i_j_Geometry_convergence_category> (1)
1

>  <r_j_Gas_Phase_Energy> (1)
-465.149389809954

>  <r_j_Final_Energy> (1)
-465.149389809954

>  <r_j_HOMO> (1)
-0.281496130903923

>  <r_j_LUMO> (1)
-0.00368337483637749

>  <r_j_Polarizability> (1)
103.889555335225

>  <r_j_QM_Dipole_(debye)> (1)
2.03593463444515

>  <r_j_QM_Dipole_X_(debye)> (1)
0.433026905733988

>  <r_j_QM_Dipole_Y_(debye)> (1)
1.98048353591064

>  <r_j_QM_Dipole_Z_(debye)> (1)
0.187623289147784

>  <r_j_Lowest_Frequency_(cm-1)> (1)
64.3288606716506

>  <r_j_Highest_Frequency_(cm-1)> (1)
3073.4014330201

>  <r_j_2nd_Lowest_Frequency_(cm-1)> (1)
77.6935215467353

>  <i_j_Num_Negative_Frequencies> (1)
0

>  <r_j_Zero_Point_Energy_(kcal/mol)> (1)
145.170916269561

>  <r_j_Entropy_(cal/mol/K)_298.15K_1.00E+00atm> (1)
103.91489088319

>  <r_j_Enthalpy_(kcal/mol)_298.15K_1.00E+00atm> (1)
7.93916280567341

>  <r_j_Free_Energy_(kcal/mol)_298.15K_1.00E+00atm> (1)
-23.0430619111498

>  <r_j_Internal_Energy_(kcal/mol)_298.15K_1.00E+00atm> (1)
7.34667721684613

>  <r_j_Heat_Capacity_(cal/mol/K)_298.15K_1.00E+00atm> (1)
43.9059959232859

>  <r_j_ln(Q)_298.15K_1.00E+00atm> (1)
38.8921896931867

>  <r_j_Total_Internal_Energy_(au)_298.15K_1.00E+00atm> (1)
-464.906337552135

>  <r_j_Total_Enthalpy_(au)_298.15K_1.00E+00atm> (1)
-464.905393366243

>  <r_j_Total_Free_Energy_(au)_298.15K_1.00E+00atm> (1)
-464.954766684412

>  <r_lp_tautomer_probability> (1)
1

>  <r_epik_Ionization_Penalty> (1)
  0.0000

>  <r_epik_Ionization_Penalty_Charging> (1)
  0.0000

>  <r_epik_Ionization_Penalty_Neutral> (1)
  0.0000

>  <r_epik_State_Penalty> (1)
  0.0000

>  <r_epik_Charging_Adjusted_Penalty> (1)
0

>  <i_epik_Tot_Q> (1)
0

>  <i_epik_Tot_abs_Q> (1)
0

>  <s_lp_Force_Field> (1)
S-OPLS

>  <r_lp_Energy> (1)
2.90325

>  <b_lp_Chiralities_Consistent> (1)
1

>  <s_epik_Chemistry_Notes> (1)
This compound has an ester and may undergo hydrolysis at high or low pH.

$$$$
