7361_Furfuryl alcohol
                    3D
 Schrodinger Suite 2021-3.
 13 13  0  0  1  0            999 V2000
   -2.2075   -0.3481    0.0225 C   0  0  0  0  0  0
   -1.9667    0.9885   -0.0687 C   0  0  0  0  0  0
   -0.6273    1.2342   -0.0933 O   0  0  0  0  0  0
    0.0047    0.0220   -0.0108 C   0  0  0  0  0  0
   -0.9206   -0.9769    0.0610 C   0  0  0  0  0  0
    1.4894    0.0331   -0.0078 C   0  0  0  0  0  0
    1.9608    0.4763    1.2662 O   0  0  0  0  0  0
   -3.1751   -0.8272    0.0587 H   0  0  0  0  0  0
   -2.6068    1.8553   -0.1240 H   0  0  0  0  0  0
   -0.7073   -2.0332    0.1385 H   0  0  0  0  0  0
    1.8336   -0.9869   -0.2380 H   0  0  0  0  0  0
    1.8438    0.6948   -0.8134 H   0  0  0  0  0  0
    2.9116    0.6290    1.1875 H   0  0  0  0  0  0
  1  5  1  0  0  0
  1  2  2  0  0  0
  1  8  1  0  0  0
  2  3  1  0  0  0
  2  9  1  0  0  0
  3  4  1  0  0  0
  4  5  2  0  0  0
  4  6  1  0  0  0
  5 10  1  0  0  0
  6  7  1  0  0  0
  6 11  1  0  0  0
  6 12  1  0  0  0
  7 13  1  0  0  0
M  END
>  <i_m_Spin_multiplicity> (1)
1

>  <s_j_Task> (1)
Single Point

>  <s_j_QM_Method> (1)
DFT(b3lyp-d3)

>  <s_j_QM_Basis> (1)
cc-pvtz(-f)

>  <i_j_Number_of_canonical_orbitals> (1)
213

>  <i_j_Geometry_convergence_category> (1)
0

>  <r_j_Gas_Phase_Energy> (1)
-344.677043367812

>  <r_j_Final_Energy> (1)
-344.677043367812

>  <r_j_HOMO> (1)
-0.230933525464048

>  <r_j_LUMO> (1)
-0.006740373761532

>  <r_j_Polarizability> (1)
61.9710733521704

>  <r_j_QM_Dipole_(debye)> (1)
1.50555851527659

>  <r_j_QM_Dipole_X_(debye)> (1)
0.692472254238427

>  <r_j_QM_Dipole_Y_(debye)> (1)
-0.657870514568894

>  <r_j_QM_Dipole_Z_(debye)> (1)
-1.16378477653415

>  <r_j_Lowest_Frequency_(cm-1)> (1)
98.7434736731161

>  <r_j_Highest_Frequency_(cm-1)> (1)
3760.44898334824

>  <r_j_2nd_Lowest_Frequency_(cm-1)> (1)
160.118355473227

>  <i_j_Num_Negative_Frequencies> (1)
0

>  <r_j_Zero_Point_Energy_(kcal/mol)> (1)
64.2114805409596

>  <r_j_Entropy_(cal/mol/K)_298.15K_1.00E+00atm> (1)
78.5434933474155

>  <r_j_Enthalpy_(kcal/mol)_298.15K_1.00E+00atm> (1)
4.46143820225625

>  <r_j_Free_Energy_(kcal/mol)_298.15K_1.00E+00atm> (1)
-18.9563043392757

>  <r_j_Internal_Energy_(kcal/mol)_298.15K_1.00E+00atm> (1)
3.86895261342897

>  <r_j_Heat_Capacity_(cal/mol/K)_298.15K_1.00E+00atm> (1)
22.4964271533093

>  <r_j_ln(Q)_298.15K_1.00E+00atm> (1)
31.9945407900916

>  <r_j_Total_Internal_Energy_(au)_298.15K_1.00E+00atm> (1)
-344.568550290959

>  <r_j_Total_Enthalpy_(au)_298.15K_1.00E+00atm> (1)
-344.567606105067

>  <r_j_Total_Free_Energy_(au)_298.15K_1.00E+00atm> (1)
-344.604924653489

>  <r_lp_tautomer_probability> (1)
1

>  <r_epik_Ionization_Penalty> (1)
  0.0000

>  <r_epik_Ionization_Penalty_Charging> (1)
  0.0000

>  <r_epik_Ionization_Penalty_Neutral> (1)
  0.0000

>  <r_epik_State_Penalty> (1)
  0.0000

>  <r_epik_Charging_Adjusted_Penalty> (1)
0

>  <i_epik_Tot_Q> (1)
0

>  <i_epik_Tot_abs_Q> (1)
0

>  <s_lp_Force_Field> (1)
S-OPLS

>  <r_lp_Energy> (1)
5.32402

>  <b_lp_Chiralities_Consistent> (1)
1

$$$$
