7362_Furfural
                    3D
 Schrodinger Suite 2021-3.
 11 11  0  0  1  0            999 V2000
   -2.1964   -0.3586    0.0000 C   0  0  0  0  0  0
   -1.9401    0.9858    0.0000 C   0  0  0  0  0  0
   -0.6084    1.2244    0.0000 O   0  0  0  0  0  0
    0.0136   -0.0011    0.0000 C   0  0  0  0  0  0
   -0.9272   -1.0004    0.0000 C   0  0  0  0  0  0
    1.4682   -0.0179    0.0000 C   0  0  0  0  0  0
    2.1263   -1.0445    0.0000 O   0  0  0  0  0  0
   -3.1710   -0.8242    0.0000 H   0  0  0  0  0  0
   -2.5779    1.8568    0.0000 H   0  0  0  0  0  0
   -0.7105   -2.0582    0.0000 H   0  0  0  0  0  0
    1.9368    0.9888    0.0000 H   0  0  0  0  0  0
  1  5  1  0  0  0
  1  2  2  0  0  0
  1  8  1  0  0  0
  2  3  1  0  0  0
  2  9  1  0  0  0
  3  4  1  0  0  0
  4  5  2  0  0  0
  4  6  1  0  0  0
  5 10  1  0  0  0
  6  7  2  0  0  0
  6 11  1  0  0  0
M  END
>  <i_m_Spin_multiplicity> (1)
1

>  <s_j_Task> (1)
Single Point

>  <s_j_QM_Method> (1)
DFT(b3lyp-d3)

>  <s_j_QM_Basis> (1)
cc-pvtz(-f)

>  <i_j_Number_of_canonical_orbitals> (1)
195

>  <i_j_Geometry_convergence_category> (1)
3

>  <r_j_Gas_Phase_Energy> (1)
-343.47029314724

>  <r_j_Final_Energy> (1)
-343.47029314724

>  <r_j_HOMO> (1)
-0.257459501997779

>  <r_j_LUMO> (1)
-0.0758857288339923

>  <r_j_Polarizability> (1)
62.0568221882166

>  <r_j_QM_Dipole_(debye)> (1)
3.64675724016025

>  <r_j_QM_Dipole_X_(debye)> (1)
-3.37085406522026

>  <r_j_QM_Dipole_Y_(debye)> (1)
1.39146729736801

>  <r_j_QM_Dipole_Z_(debye)> (1)
2.14783085432877e-06

>  <r_j_Lowest_Frequency_(cm-1)> (1)
181.800319285314

>  <r_j_Highest_Frequency_(cm-1)> (1)
3231.97150120231

>  <r_j_2nd_Lowest_Frequency_(cm-1)> (1)
224.595919707873

>  <i_j_Num_Negative_Frequencies> (1)
0

>  <r_j_Zero_Point_Energy_(kcal/mol)> (1)
49.5111734717337

>  <r_j_Entropy_(cal/mol/K)_298.15K_1.00E+00atm> (1)
75.1050630529505

>  <r_j_Enthalpy_(kcal/mol)_298.15K_1.00E+00atm> (1)
4.01146020484457

>  <r_j_Free_Energy_(kcal/mol)_298.15K_1.00E+00atm> (1)
-18.3811143443926

>  <r_j_Internal_Energy_(kcal/mol)_298.15K_1.00E+00atm> (1)
3.4189746160173

>  <r_j_Heat_Capacity_(cal/mol/K)_298.15K_1.00E+00atm> (1)
19.7604093692268

>  <r_j_ln(Q)_298.15K_1.00E+00atm> (1)
31.0237323759636

>  <r_j_Total_Internal_Energy_(au)_298.15K_1.00E+00atm> (1)
-343.385943586607

>  <r_j_Total_Enthalpy_(au)_298.15K_1.00E+00atm> (1)
-343.384999400714

>  <r_j_Total_Free_Energy_(au)_298.15K_1.00E+00atm> (1)
-343.42068423994

>  <r_lp_tautomer_probability> (1)
1

>  <r_epik_Ionization_Penalty> (1)
  0.0000

>  <r_epik_Ionization_Penalty_Charging> (1)
  0.0000

>  <r_epik_Ionization_Penalty_Neutral> (1)
  0.0000

>  <r_epik_State_Penalty> (1)
  0.0000

>  <r_epik_Charging_Adjusted_Penalty> (1)
0

>  <i_epik_Tot_Q> (1)
0

>  <i_epik_Tot_abs_Q> (1)
0

>  <s_lp_Force_Field> (1)
S-OPLS

>  <r_lp_Energy> (1)
4.03429

>  <b_lp_Chiralities_Consistent> (1)
1

$$$$
