7406_Isopropylbenzene
                    3D
 Schrodinger Suite 2021-3.
 21 21  0  0  1  0            999 V2000
   -0.0543   -0.0009   -0.0443 C   0  0  0  0  0  0
    1.4833   -0.0240    0.0245 C   0  0  0  0  0  0
    2.0166   -1.4664   -0.0441 C   0  0  0  0  0  0
    1.9991    0.7054    1.2569 C   0  0  0  0  0  0
    2.8034    1.8437    1.1319 C   0  0  0  0  0  0
    3.2796    2.5177    2.2574 C   0  0  0  0  0  0
    2.9570    2.0610    3.5344 C   0  0  0  0  0  0
    2.1555    0.9265    3.6752 C   0  0  0  0  0  0
    1.6829    0.2577    2.5478 C   0  0  0  0  0  0
   -0.4350    1.0247   -0.0211 H   0  0  0  0  0  0
   -0.4939   -0.5391    0.8027 H   0  0  0  0  0  0
   -0.4095   -0.4797   -0.9635 H   0  0  0  0  0  0
    1.8631    0.5124   -0.8550 H   0  0  0  0  0  0
    3.1105   -1.4841   -0.0216 H   0  0  0  0  0  0
    1.6826   -1.9609   -0.9628 H   0  0  0  0  0  0
    1.6560   -2.0596    0.8034 H   0  0  0  0  0  0
    3.0600    2.2070    0.1394 H   0  0  0  0  0  0
    3.9026    3.3995    2.1352 H   0  0  0  0  0  0
    3.3258    2.5831    4.4126 H   0  0  0  0  0  0
    1.8982    0.5623    4.6661 H   0  0  0  0  0  0
    1.0600   -0.6240    2.6737 H   0  0  0  0  0  0
  1  2  1  0  0  0
  1 10  1  0  0  0
  1 11  1  0  0  0
  1 12  1  0  0  0
  2  3  1  0  0  0
  2  4  1  0  0  0
  2 13  1  0  0  0
  3 14  1  0  0  0
  3 15  1  0  0  0
  3 16  1  0  0  0
  4  9  1  0  0  0
  4  5  2  0  0  0
  5  6  1  0  0  0
  5 17  1  0  0  0
  6  7  2  0  0  0
  6 18  1  0  0  0
  7  8  1  0  0  0
  7 19  1  0  0  0
  8  9  2  0  0  0
  8 20  1  0  0  0
  9 21  1  0  0  0
M  END
>  <i_m_Spin_multiplicity> (1)
1

>  <s_j_Task> (1)
Single Point

>  <s_j_QM_Method> (1)
DFT(b3lyp-d3)

>  <s_j_QM_Basis> (1)
cc-pvtz(-f)

>  <i_j_Number_of_canonical_orbitals> (1)
309

>  <i_j_Geometry_convergence_category> (1)
3

>  <r_j_Gas_Phase_Energy> (1)
-350.321750511555

>  <r_j_Final_Energy> (1)
-350.321750511555

>  <r_j_HOMO> (1)
-0.25068876643197

>  <r_j_LUMO> (1)
-0.0171393855046106

>  <r_j_Polarizability> (1)
101.394232004003

>  <r_j_QM_Dipole_(debye)> (1)
0.335207685818282

>  <r_j_QM_Dipole_X_(debye)> (1)
-0.104220506486253

>  <r_j_QM_Dipole_Y_(debye)> (1)
-0.146999647932956

>  <r_j_QM_Dipole_Z_(debye)> (1)
-0.282654174154538

>  <r_j_Lowest_Frequency_(cm-1)> (1)
80.5992010292237

>  <r_j_Highest_Frequency_(cm-1)> (1)
3145.13646584415

>  <r_j_2nd_Lowest_Frequency_(cm-1)> (1)
146.096240276026

>  <i_j_Num_Negative_Frequencies> (1)
0

>  <r_j_Zero_Point_Energy_(kcal/mol)> (1)
115.67073249943

>  <r_j_Entropy_(cal/mol/K)_298.15K_1.00E+00atm> (1)
87.6382668277025

>  <r_j_Enthalpy_(kcal/mol)_298.15K_1.00E+00atm> (1)
5.74121414696409

>  <r_j_Free_Energy_(kcal/mol)_298.15K_1.00E+00atm> (1)
-20.3881351077154

>  <r_j_Internal_Energy_(kcal/mol)_298.15K_1.00E+00atm> (1)
5.14872855813682

>  <r_j_Heat_Capacity_(cal/mol/K)_298.15K_1.00E+00atm> (1)
32.7801877658764

>  <r_j_ln(Q)_298.15K_1.00E+00atm> (1)
34.4111915836979

>  <r_j_Total_Internal_Energy_(au)_298.15K_1.00E+00atm> (1)
-350.129212443473

>  <r_j_Total_Enthalpy_(au)_298.15K_1.00E+00atm> (1)
-350.12826825758

>  <r_j_Total_Free_Energy_(au)_298.15K_1.00E+00atm> (1)
-350.169908026387

>  <r_lp_tautomer_probability> (1)
1

>  <r_epik_Ionization_Penalty> (1)
  0.0000

>  <r_epik_Ionization_Penalty_Charging> (1)
  0.0000

>  <r_epik_Ionization_Penalty_Neutral> (1)
  0.0000

>  <r_epik_State_Penalty> (1)
  0.0000

>  <r_epik_Charging_Adjusted_Penalty> (1)
0

>  <i_epik_Tot_Q> (1)
0

>  <i_epik_Tot_abs_Q> (1)
0

>  <s_lp_Force_Field> (1)
S-OPLS

>  <r_lp_Energy> (1)
10.911916

>  <b_lp_Chiralities_Consistent> (1)
1

$$$$
