74208_3-Methylpyridazine
                    3D
 Schrodinger Suite 2021-3.
 13 13  0  0  1  0            999 V2000
    0.0109   -0.0158    0.0001 C   0  0  0  0  0  0
    1.5174    0.0109   -0.0001 C   0  0  0  0  0  0
    2.1201   -1.1898   -0.0001 N   0  0  0  0  0  0
    3.4500   -1.2746    0.0000 N   0  0  0  0  0  0
    4.1815   -0.1559    0.0001 C   0  0  0  0  0  0
    3.6256    1.1257    0.0000 C   0  0  0  0  0  0
    2.2448    1.2105   -0.0001 C   0  0  0  0  0  0
   -0.4102    0.9929    0.0001 H   0  0  0  0  0  0
   -0.3587   -0.5506    0.8803 H   0  0  0  0  0  0
   -0.3589   -0.5506   -0.8801 H   0  0  0  0  0  0
    5.2577   -0.3069    0.0002 H   0  0  0  0  0  0
    4.2563    2.0094    0.0001 H   0  0  0  0  0  0
    1.7304    2.1669   -0.0001 H   0  0  0  0  0  0
  1  2  1  0  0  0
  1  8  1  0  0  0
  1  9  1  0  0  0
  1 10  1  0  0  0
  2  7  1  0  0  0
  2  3  2  0  0  0
  3  4  1  0  0  0
  4  5  2  0  0  0
  5  6  1  0  0  0
  5 11  1  0  0  0
  6  7  2  0  0  0
  6 12  1  0  0  0
  7 13  1  0  0  0
M  END
>  <i_m_Spin_multiplicity> (1)
1

>  <s_j_Task> (1)
Single Point

>  <s_j_QM_Method> (1)
DFT(b3lyp-d3)

>  <s_j_QM_Basis> (1)
cc-pvtz(-f)

>  <i_j_Number_of_canonical_orbitals> (1)
213

>  <i_j_Geometry_convergence_category> (1)
0

>  <r_j_Gas_Phase_Energy> (1)
-303.711013263321

>  <r_j_Final_Energy> (1)
-303.711013263321

>  <r_j_HOMO> (1)
-0.240493849185269

>  <r_j_LUMO> (1)
-0.0584405405855697

>  <r_j_Polarizability> (1)
67.2336608186765

>  <r_j_QM_Dipole_(debye)> (1)
3.9161397280108

>  <r_j_QM_Dipole_X_(debye)> (1)
-0.3117130594089

>  <r_j_QM_Dipole_Y_(debye)> (1)
3.90371429224931

>  <r_j_QM_Dipole_Z_(debye)> (1)
0.000249773727304325

>  <r_j_Lowest_Frequency_(cm-1)> (1)
171.573108289121

>  <r_j_Highest_Frequency_(cm-1)> (1)
3150.51417029555

>  <r_j_2nd_Lowest_Frequency_(cm-1)> (1)
217.544909599865

>  <i_j_Num_Negative_Frequencies> (1)
0

>  <r_j_Zero_Point_Energy_(kcal/mol)> (1)
64.6092059694741

>  <r_j_Entropy_(cal/mol/K)_298.15K_1.00E+00atm> (1)
75.7653962232143

>  <r_j_Enthalpy_(kcal/mol)_298.15K_1.00E+00atm> (1)
4.17914700484445

>  <r_j_Free_Energy_(kcal/mol)_298.15K_1.00E+00atm> (1)
-18.4103058791069

>  <r_j_Internal_Energy_(kcal/mol)_298.15K_1.00E+00atm> (1)
3.58666141601717

>  <r_j_Heat_Capacity_(cal/mol/K)_298.15K_1.00E+00atm> (1)
21.4256297171653

>  <r_j_ln(Q)_298.15K_1.00E+00atm> (1)
31.0730019873513

>  <r_j_Total_Internal_Energy_(au)_298.15K_1.00E+00atm> (1)
-303.602336230311

>  <r_j_Total_Enthalpy_(au)_298.15K_1.00E+00atm> (1)
-303.601392044419

>  <r_j_Total_Free_Energy_(au)_298.15K_1.00E+00atm> (1)
-303.637390629243

>  <r_lp_tautomer_probability> (1)
1

>  <r_epik_Ionization_Penalty> (1)
  0.0004

>  <r_epik_Ionization_Penalty_Charging> (1)
  0.0000

>  <r_epik_Ionization_Penalty_Neutral> (1)
  0.0004

>  <r_epik_State_Penalty> (1)
  0.0000

>  <r_epik_Charging_Adjusted_Penalty> (1)
0

>  <i_epik_Tot_Q> (1)
0

>  <i_epik_Tot_abs_Q> (1)
0

>  <s_lp_Force_Field> (1)
S-OPLS

>  <r_lp_Energy> (1)
11.9919

>  <b_lp_Chiralities_Consistent> (1)
1

$$$$
