7459_1-Methyl-4-isopropylcyclohexane
                    3D
 Schrodinger Suite 2021-3.
 30 30  0  0  1  0            999 V2000
   -2.3354   -3.0245    0.0007 C   0  0  0  0  0  0
   -2.6325   -1.5168    0.0003 C   0  0  0  0  0  0
   -2.0825   -0.8103    1.2545 C   0  0  0  0  0  0
   -0.5490   -0.7012    1.2606 C   0  0  0  0  0  0
    0.0041   -0.0037   -0.0005 C   0  0  0  0  0  0
   -0.5495   -0.7017   -1.2612 C   0  0  0  0  0  0
   -2.0830   -0.8110   -1.2546 C   0  0  0  0  0  0
    1.5534    0.0714   -0.0003 C   0  0  0  0  0  0
    2.1027    0.7721    1.2538 C   0  0  0  0  0  0
    2.1035    0.7740   -1.2532 C   0  0  0  0  0  0
   -1.2616   -3.2356    0.0006 H   0  0  0  0  0  0
   -2.7641   -3.5068   -0.8848 H   0  0  0  0  0  0
   -2.7637   -3.5063    0.8866 H   0  0  0  0  0  0
   -3.7253   -1.4026    0.0005 H   0  0  0  0  0  0
   -2.5043    0.2037    1.2997 H   0  0  0  0  0  0
   -2.4227   -1.3286    2.1601 H   0  0  0  0  0  0
   -0.2418   -0.1607    2.1613 H   0  0  0  0  0  0
   -0.1009   -1.7020    1.3362 H   0  0  0  0  0  0
   -0.3750    1.0328   -0.0006 H   0  0  0  0  0  0
   -0.2429   -0.1614   -2.1623 H   0  0  0  0  0  0
   -0.1013   -1.7025   -1.3369 H   0  0  0  0  0  0
   -2.4235   -1.3300   -2.1596 H   0  0  0  0  0  0
   -2.5049    0.2028   -1.3002 H   0  0  0  0  0  0
    1.9297   -0.9638   -0.0009 H   0  0  0  0  0  0
    1.6905    1.7851    1.3433 H   0  0  0  0  0  0
    3.1927    0.8628    1.1999 H   0  0  0  0  0  0
    1.8656    0.2319    2.1738 H   0  0  0  0  0  0
    1.6900    1.7865   -1.3425 H   0  0  0  0  0  0
    1.8686    0.2342   -2.1740 H   0  0  0  0  0  0
    3.1933    0.8662   -1.1977 H   0  0  0  0  0  0
  1  2  1  0  0  0
  1 11  1  0  0  0
  1 12  1  0  0  0
  1 13  1  0  0  0
  2  7  1  0  0  0
  2  3  1  0  0  0
  2 14  1  0  0  0
  3  4  1  0  0  0
  3 15  1  0  0  0
  3 16  1  0  0  0
  4  5  1  0  0  0
  4 17  1  0  0  0
  4 18  1  0  0  0
  5  6  1  0  0  0
  5  8  1  0  0  0
  5 19  1  0  0  0
  6  7  1  0  0  0
  6 20  1  0  0  0
  6 21  1  0  0  0
  7 22  1  0  0  0
  7 23  1  0  0  0
  8  9  1  0  0  0
  8 10  1  0  0  0
  8 24  1  0  0  0
  9 25  1  0  0  0
  9 26  1  0  0  0
  9 27  1  0  0  0
 10 28  1  0  0  0
 10 29  1  0  0  0
 10 30  1  0  0  0
M  END
>  <i_m_Spin_multiplicity> (1)
1

>  <s_j_Task> (1)
Single Point

>  <s_j_QM_Method> (1)
DFT(b3lyp-d3)

>  <s_j_QM_Basis> (1)
cc-pvtz(-f)

>  <i_j_Number_of_canonical_orbitals> (1)
406

>  <i_j_Geometry_convergence_category> (1)
0

>  <r_j_Gas_Phase_Energy> (1)
-393.290172183084

>  <r_j_Final_Energy> (1)
-393.290172183084

>  <r_j_HOMO> (1)
-0.291129514346595

>  <r_j_LUMO> (1)
0.0207343193045822

>  <r_j_Polarizability> (1)
116.865603133721

>  <r_j_QM_Dipole_(debye)> (1)
0.0779800632436814

>  <r_j_QM_Dipole_X_(debye)> (1)
-0.0776698436638061

>  <r_j_QM_Dipole_Y_(debye)> (1)
-0.00694469738991144

>  <r_j_QM_Dipole_Z_(debye)> (1)
0.000238383915214605

>  <r_j_Lowest_Frequency_(cm-1)> (1)
84.3783005351026

>  <r_j_Highest_Frequency_(cm-1)> (1)
3064.62122162668

>  <r_j_2nd_Lowest_Frequency_(cm-1)> (1)
100.937648435398

>  <i_j_Num_Negative_Frequencies> (1)
0

>  <r_j_Zero_Point_Energy_(kcal/mol)> (1)
177.186930516235

>  <r_j_Entropy_(cal/mol/K)_298.15K_1.00E+00atm> (1)
97.6032231628332

>  <r_j_Enthalpy_(kcal/mol)_298.15K_1.00E+00atm> (1)
7.23225496555688

>  <r_j_Free_Energy_(kcal/mol)_298.15K_1.00E+00atm> (1)
-21.8681460204418

>  <r_j_Internal_Energy_(kcal/mol)_298.15K_1.00E+00atm> (1)
6.6397693767296

>  <r_j_Heat_Capacity_(cal/mol/K)_298.15K_1.00E+00atm> (1)
43.3614277620371

>  <r_j_ln(Q)_298.15K_1.00E+00atm> (1)
36.9091610544084

>  <r_j_Total_Internal_Energy_(au)_298.15K_1.00E+00atm> (1)
-392.997225687961

>  <r_j_Total_Enthalpy_(au)_298.15K_1.00E+00atm> (1)
-392.996281502069

>  <r_j_Total_Free_Energy_(au)_298.15K_1.00E+00atm> (1)
-393.042655943216

>  <r_lp_tautomer_probability> (1)
1

>  <r_epik_Ionization_Penalty> (1)
  0.0000

>  <r_epik_Ionization_Penalty_Charging> (1)
  0.0000

>  <r_epik_Ionization_Penalty_Neutral> (1)
  0.0000

>  <r_epik_State_Penalty> (1)
  0.0000

>  <r_epik_Charging_Adjusted_Penalty> (1)
0

>  <i_epik_Tot_Q> (1)
0

>  <i_epik_Tot_abs_Q> (1)
0

>  <s_lp_Force_Field> (1)
S-OPLS

>  <r_lp_Energy> (1)
13.3636

>  <b_lp_Chiralities_Consistent> (1)
1

$$$$
