7463_1-Methyl-4-isopropylbenzene
                    3D
 Schrodinger Suite 2021-3.
 24 24  0  0  1  0            999 V2000
   -4.3593   -0.0206    0.0000 C   0  0  0  0  0  0
   -2.8485   -0.0152    0.0000 C   0  0  0  0  0  0
   -2.1107   -1.2014    0.0003 C   0  0  0  0  0  0
   -0.7146   -1.1816    0.0003 C   0  0  0  0  0  0
   -0.0060    0.0224   -0.0001 C   0  0  0  0  0  0
   -0.7480    1.2134   -0.0003 C   0  0  0  0  0  0
   -2.1389    1.1945   -0.0002 C   0  0  0  0  0  0
    1.5157    0.0390   -0.0002 C   0  0  0  0  0  0
    2.0759    0.7084    1.2678 C   0  0  0  0  0  0
    2.0759    0.7090   -1.2677 C   0  0  0  0  0  0
   -4.7577   -1.0392    0.0002 H   0  0  0  0  0  0
   -4.7586    0.4946   -0.8814 H   0  0  0  0  0  0
   -4.7587    0.4950    0.8811 H   0  0  0  0  0  0
   -2.6323   -2.1557    0.0006 H   0  0  0  0  0  0
   -0.1676   -2.1217    0.0005 H   0  0  0  0  0  0
   -0.2307    2.1695   -0.0004 H   0  0  0  0  0  0
   -2.6875    2.1339   -0.0004 H   0  0  0  0  0  0
    1.8528   -1.0061   -0.0005 H   0  0  0  0  0  0
    1.7017    0.2178    2.1715 H   0  0  0  0  0  0
    1.7849    1.7636    1.3162 H   0  0  0  0  0  0
    3.1706    0.6644    1.2798 H   0  0  0  0  0  0
    1.7018    0.2189   -2.1717 H   0  0  0  0  0  0
    3.1706    0.6651   -1.2797 H   0  0  0  0  0  0
    1.7849    1.7643   -1.3157 H   0  0  0  0  0  0
  1  2  1  0  0  0
  1 11  1  0  0  0
  1 12  1  0  0  0
  1 13  1  0  0  0
  2  7  1  0  0  0
  2  3  2  0  0  0
  3  4  1  0  0  0
  3 14  1  0  0  0
  4  5  2  0  0  0
  4 15  1  0  0  0
  5  6  1  0  0  0
  5  8  1  0  0  0
  6  7  2  0  0  0
  6 16  1  0  0  0
  7 17  1  0  0  0
  8  9  1  0  0  0
  8 10  1  0  0  0
  8 18  1  0  0  0
  9 19  1  0  0  0
  9 20  1  0  0  0
  9 21  1  0  0  0
 10 22  1  0  0  0
 10 23  1  0  0  0
 10 24  1  0  0  0
M  END
>  <i_m_Spin_multiplicity> (1)
1

>  <s_j_Task> (1)
Single Point

>  <s_j_QM_Method> (1)
DFT(b3lyp-d3)

>  <s_j_QM_Basis> (1)
cc-pvtz(-f)

>  <i_j_Number_of_canonical_orbitals> (1)
348

>  <i_j_Geometry_convergence_category> (1)
0

>  <r_j_Gas_Phase_Energy> (1)
-389.654349063774

>  <r_j_Final_Energy> (1)
-389.654349063774

>  <r_j_HOMO> (1)
-0.234552471838091

>  <r_j_LUMO> (1)
-0.00948365595032705

>  <r_j_Polarizability> (1)
115.973700180898

>  <r_j_QM_Dipole_(debye)> (1)
0.0547453479596833

>  <r_j_QM_Dipole_X_(debye)> (1)
-0.0538913385123731

>  <r_j_QM_Dipole_Y_(debye)> (1)
0.00963202354431115

>  <r_j_QM_Dipole_Z_(debye)> (1)
-2.96481610944915e-05

>  <r_j_Lowest_Frequency_(cm-1)> (1)
77.6961631374158

>  <r_j_Highest_Frequency_(cm-1)> (1)
3127.37811304397

>  <r_j_2nd_Lowest_Frequency_(cm-1)> (1)
112.203833695791

>  <i_j_Num_Negative_Frequencies> (1)
0

>  <r_j_Zero_Point_Energy_(kcal/mol)> (1)
132.869047758058

>  <r_j_Entropy_(cal/mol/K)_298.15K_1.00E+00atm> (1)
94.7955055296989

>  <r_j_Enthalpy_(kcal/mol)_298.15K_1.00E+00atm> (1)
6.73568908530634

>  <r_j_Free_Energy_(kcal/mol)_298.15K_1.00E+00atm> (1)
-21.5275908883734

>  <r_j_Internal_Energy_(kcal/mol)_298.15K_1.00E+00atm> (1)
6.14320349647906

>  <r_j_Heat_Capacity_(cal/mol/K)_298.15K_1.00E+00atm> (1)
38.7147845902445

>  <r_j_ln(Q)_298.15K_1.00E+00atm> (1)
36.3343704797675

>  <r_j_Total_Internal_Energy_(au)_298.15K_1.00E+00atm> (1)
-389.43281893889

>  <r_j_Total_Enthalpy_(au)_298.15K_1.00E+00atm> (1)
-389.431874752998

>  <r_j_Total_Free_Energy_(au)_298.15K_1.00E+00atm> (1)
-389.476915156888

>  <r_lp_tautomer_probability> (1)
1

>  <r_epik_Ionization_Penalty> (1)
  0.0000

>  <r_epik_Ionization_Penalty_Charging> (1)
  0.0000

>  <r_epik_Ionization_Penalty_Neutral> (1)
  0.0000

>  <r_epik_State_Penalty> (1)
  0.0000

>  <r_epik_Charging_Adjusted_Penalty> (1)
0

>  <i_epik_Tot_Q> (1)
0

>  <i_epik_Tot_abs_Q> (1)
0

>  <s_lp_Force_Field> (1)
S-OPLS

>  <r_lp_Energy> (1)
8.37619

>  <b_lp_Chiralities_Consistent> (1)
1

$$$$
