7500_Ethylbenzene
                    3D
 Schrodinger Suite 2021-3.
 18 18  0  0  1  0            999 V2000
   -0.0481    0.0356   -0.0009 C   0  0  0  0  0  0
    1.4905    0.0038    0.0004 C   0  0  0  0  0  0
    2.0306   -1.4097    0.0003 C   0  0  0  0  0  0
    2.2620   -2.0896    1.2027 C   0  0  0  0  0  0
    2.7103   -3.4105    1.2055 C   0  0  0  0  0  0
    2.9356   -4.0761   -0.0001 C   0  0  0  0  0  0
    2.7091   -3.4105   -1.2056 C   0  0  0  0  0  0
    2.2608   -2.0897   -1.2023 C   0  0  0  0  0  0
   -0.4238    1.0643   -0.0009 H   0  0  0  0  0  0
   -0.4468   -0.4749    0.8819 H   0  0  0  0  0  0
   -0.4453   -0.4743   -0.8847 H   0  0  0  0  0  0
    1.8656    0.5425   -0.8779 H   0  0  0  0  0  0
    1.8641    0.5418    0.8799 H   0  0  0  0  0  0
    2.0900   -1.5762    2.1460 H   0  0  0  0  0  0
    2.8876   -3.9190    2.1492 H   0  0  0  0  0  0
    3.2878   -5.1037   -0.0003 H   0  0  0  0  0  0
    2.8855   -3.9190   -2.1494 H   0  0  0  0  0  0
    2.0879   -1.5763   -2.1454 H   0  0  0  0  0  0
  1  2  1  0  0  0
  1  9  1  0  0  0
  1 10  1  0  0  0
  1 11  1  0  0  0
  2  3  1  0  0  0
  2 12  1  0  0  0
  2 13  1  0  0  0
  3  8  1  0  0  0
  3  4  2  0  0  0
  4  5  1  0  0  0
  4 14  1  0  0  0
  5  6  2  0  0  0
  5 15  1  0  0  0
  6  7  1  0  0  0
  6 16  1  0  0  0
  7  8  2  0  0  0
  7 17  1  0  0  0
  8 18  1  0  0  0
M  END
>  <i_m_Spin_multiplicity> (1)
1

>  <s_j_Task> (1)
Single Point

>  <s_j_QM_Method> (1)
DFT(b3lyp-d3)

>  <s_j_QM_Basis> (1)
cc-pvtz(-f)

>  <i_j_Number_of_canonical_orbitals> (1)
269

>  <i_j_Geometry_convergence_category> (1)
0

>  <r_j_Gas_Phase_Energy> (1)
-310.991844688974

>  <r_j_Final_Energy> (1)
-310.991844688974

>  <r_j_HOMO> (1)
-0.25881346117511

>  <r_j_LUMO> (1)
-0.0255255011838071

>  <r_j_Polarizability> (1)
89.3180116734328

>  <r_j_QM_Dipole_(debye)> (1)
0.349818769165927

>  <r_j_QM_Dipole_X_(debye)> (1)
-0.16495728639885

>  <r_j_QM_Dipole_Y_(debye)> (1)
0.308483739438727

>  <r_j_QM_Dipole_Z_(debye)> (1)
-0.000217776471129486

>  <r_j_Lowest_Frequency_(cm-1)> (1)
90.2470801760858

>  <r_j_Highest_Frequency_(cm-1)> (1)
3145.07792948936

>  <r_j_2nd_Lowest_Frequency_(cm-1)> (1)
150.258707688336

>  <i_j_Num_Negative_Frequencies> (1)
0

>  <r_j_Zero_Point_Energy_(kcal/mol)> (1)
97.9858964139289

>  <r_j_Entropy_(cal/mol/K)_298.15K_1.00E+00atm> (1)
82.428365237125

>  <r_j_Enthalpy_(kcal/mol)_298.15K_1.00E+00atm> (1)
4.98956883300048

>  <r_j_Free_Energy_(kcal/mol)_298.15K_1.00E+00atm> (1)
-19.5864482624483

>  <r_j_Internal_Energy_(kcal/mol)_298.15K_1.00E+00atm> (1)
4.39708324417321

>  <r_j_Heat_Capacity_(cal/mol/K)_298.15K_1.00E+00atm> (1)
27.4520786590771

>  <r_j_ln(Q)_298.15K_1.00E+00atm> (1)
33.0581007062407

>  <r_j_Total_Internal_Energy_(au)_298.15K_1.00E+00atm> (1)
-310.828687024344

>  <r_j_Total_Enthalpy_(au)_298.15K_1.00E+00atm> (1)
-310.827742838452

>  <r_j_Total_Free_Energy_(au)_298.15K_1.00E+00atm> (1)
-310.86690721488

>  <r_lp_tautomer_probability> (1)
1

>  <r_epik_Ionization_Penalty> (1)
  0.0000

>  <r_epik_Ionization_Penalty_Charging> (1)
  0.0000

>  <r_epik_Ionization_Penalty_Neutral> (1)
  0.0000

>  <r_epik_State_Penalty> (1)
  0.0000

>  <r_epik_Charging_Adjusted_Penalty> (1)
0

>  <i_epik_Tot_Q> (1)
0

>  <i_epik_Tot_abs_Q> (1)
0

>  <s_lp_Force_Field> (1)
S-OPLS

>  <r_lp_Energy> (1)
8.90839

>  <b_lp_Chiralities_Consistent> (1)
1

$$$$
