75364_2-tetradecanone
                    3D
 Schrodinger Suite 2021-3.
 43 42  0  0  1  0            999 V2000
   -6.3597    4.4900    0.1072 C   0  0  0  0  0  0
   -4.8332    4.4167    0.0083 C   0  0  0  0  0  0
   -4.2937    2.9824    0.0650 C   0  0  0  0  0  0
   -2.7663    2.9054   -0.0337 C   0  0  0  0  0  0
   -2.2151    1.4762    0.0265 C   0  0  0  0  0  0
   -0.6866    1.4164   -0.0713 C   0  0  0  0  0  0
   -0.1170   -0.0049   -0.0022 C   0  0  0  0  0  0
    1.4126   -0.0446   -0.0977 C   0  0  0  0  0  0
    1.9927   -1.4620   -0.0069 C   0  0  0  0  0  0
    3.5164   -1.5398   -0.1869 C   0  0  0  0  0  0
    4.3136   -0.8170    0.9089 C   0  0  0  0  0  0
    5.8280   -0.9813    0.7567 C   0  0  0  0  0  0
    6.3364   -2.3850    1.0720 C   0  0  0  0  0  0
    5.6211   -3.2352    1.5690 O   0  0  0  0  0  0
    7.7927   -2.6641    0.7430 C   0  0  0  0  0  0
   -6.7172    5.5242    0.0645 H   0  0  0  0  0  0
   -6.7150    4.0527    1.0474 H   0  0  0  0  0  0
   -6.8347    3.9386   -0.7124 H   0  0  0  0  0  0
   -4.5017    4.8900   -0.9262 H   0  0  0  0  0  0
   -4.3832    5.0034    0.8209 H   0  0  0  0  0  0
   -4.6235    2.5072    1.0002 H   0  0  0  0  0  0
   -4.7424    2.3931   -0.7478 H   0  0  0  0  0  0
   -2.4391    3.3807   -0.9697 H   0  0  0  0  0  0
   -2.3207    3.4991    0.7775 H   0  0  0  0  0  0
   -2.5393    0.9997    0.9628 H   0  0  0  0  0  0
   -2.6565    0.8800   -0.7850 H   0  0  0  0  0  0
   -0.3649    1.8906   -1.0098 H   0  0  0  0  0  0
   -0.2492    2.0205    0.7367 H   0  0  0  0  0  0
   -0.4351   -0.4795    0.9372 H   0  0  0  0  0  0
   -0.5500   -0.6125   -0.8097 H   0  0  0  0  0  0
    1.7293    0.4161   -1.0450 H   0  0  0  0  0  0
    1.8319    0.5831    0.6995 H   0  0  0  0  0  0
    1.7220   -1.9042    0.9623 H   0  0  0  0  0  0
    1.5139   -2.0900   -0.7703 H   0  0  0  0  0  0
    3.8186   -2.5925   -0.1979 H   0  0  0  0  0  0
    3.7881   -1.1209   -1.1673 H   0  0  0  0  0  0
    4.0760    0.2525    0.9048 H   0  0  0  0  0  0
    4.0157   -1.2102    1.8879 H   0  0  0  0  0  0
    6.1602   -0.7059   -0.2545 H   0  0  0  0  0  0
    6.3659   -0.2975    1.4303 H   0  0  0  0  0  0
    8.4445   -1.8845    1.1528 H   0  0  0  0  0  0
    7.9315   -2.6566   -0.3448 H   0  0  0  0  0  0
    8.0815   -3.6394    1.1372 H   0  0  0  0  0  0
  1  2  1  0  0  0
  1 16  1  0  0  0
  1 17  1  0  0  0
  1 18  1  0  0  0
  2  3  1  0  0  0
  2 19  1  0  0  0
  2 20  1  0  0  0
  3  4  1  0  0  0
  3 21  1  0  0  0
  3 22  1  0  0  0
  4  5  1  0  0  0
  4 23  1  0  0  0
  4 24  1  0  0  0
  5  6  1  0  0  0
  5 25  1  0  0  0
  5 26  1  0  0  0
  6  7  1  0  0  0
  6 27  1  0  0  0
  6 28  1  0  0  0
  7  8  1  0  0  0
  7 29  1  0  0  0
  7 30  1  0  0  0
  8  9  1  0  0  0
  8 31  1  0  0  0
  8 32  1  0  0  0
  9 10  1  0  0  0
  9 33  1  0  0  0
  9 34  1  0  0  0
 10 11  1  0  0  0
 10 35  1  0  0  0
 10 36  1  0  0  0
 11 12  1  0  0  0
 11 37  1  0  0  0
 11 38  1  0  0  0
 12 13  1  0  0  0
 12 39  1  0  0  0
 12 40  1  0  0  0
 13 14  2  0  0  0
 13 15  1  0  0  0
 15 41  1  0  0  0
 15 42  1  0  0  0
 15 43  1  0  0  0
M  END
>  <i_m_Spin_multiplicity> (1)
1

>  <s_j_Task> (1)
Single Point

>  <s_j_QM_Method> (1)
DFT(b3lyp-d3)

>  <s_j_QM_Basis> (1)
cc-pvtz(-f)

>  <i_j_Number_of_canonical_orbitals> (1)
593

>  <i_j_Geometry_convergence_category> (1)
0

>  <r_j_Gas_Phase_Energy> (1)
-625.856457124304

>  <r_j_Final_Energy> (1)
-625.856457124304

>  <r_j_HOMO> (1)
-0.270433645702491

>  <r_j_LUMO> (1)
-0.0390295932266465

>  <r_j_Polarizability> (1)
175.138538726894

>  <r_j_QM_Dipole_(debye)> (1)
2.65767189137327

>  <r_j_QM_Dipole_X_(debye)> (1)
1.59970103466521

>  <r_j_QM_Dipole_Y_(debye)> (1)
1.84527886351938

>  <r_j_QM_Dipole_Z_(debye)> (1)
-1.04839038422492

>  <r_j_Lowest_Frequency_(cm-1)> (1)
37.7656113408601

>  <r_j_Highest_Frequency_(cm-1)> (1)
3099.10769165975

>  <r_j_2nd_Lowest_Frequency_(cm-1)> (1)
52.8391932080479

>  <i_j_Num_Negative_Frequencies> (1)
0

>  <r_j_Zero_Point_Energy_(kcal/mol)> (1)
249.263624805494

>  <r_j_Entropy_(cal/mol/K)_298.15K_1.00E+00atm> (1)
134.872279223397

>  <r_j_Enthalpy_(kcal/mol)_298.15K_1.00E+00atm> (1)
11.97750737798

>  <r_j_Free_Energy_(kcal/mol)_298.15K_1.00E+00atm> (1)
-28.2346626724757

>  <r_j_Internal_Energy_(kcal/mol)_298.15K_1.00E+00atm> (1)
11.3850217891528

>  <r_j_Heat_Capacity_(cal/mol/K)_298.15K_1.00E+00atm> (1)
68.4952824643778

>  <r_j_ln(Q)_298.15K_1.00E+00atm> (1)
47.6545981959856

>  <r_j_Total_Internal_Energy_(au)_298.15K_1.00E+00atm> (1)
-625.441087063682

>  <r_j_Total_Enthalpy_(au)_298.15K_1.00E+00atm> (1)
-625.44014287779

>  <r_j_Total_Free_Energy_(au)_298.15K_1.00E+00atm> (1)
-625.504225050208

>  <r_lp_tautomer_probability> (1)
1

>  <r_epik_Ionization_Penalty> (1)
  0.0000

>  <r_epik_Ionization_Penalty_Charging> (1)
  0.0000

>  <r_epik_Ionization_Penalty_Neutral> (1)
  0.0000

>  <r_epik_State_Penalty> (1)
  0.0000

>  <r_epik_Charging_Adjusted_Penalty> (1)
0

>  <i_epik_Tot_Q> (1)
0

>  <i_epik_Tot_abs_Q> (1)
0

>  <s_lp_Force_Field> (1)
S-OPLS

>  <r_lp_Energy> (1)
3.7672

>  <b_lp_Chiralities_Consistent> (1)
1

$$$$
