7543_4,4-Methylene bis(2-chloroaniline)
                    3D
 Schrodinger Suite 2021-3.
 29 30  0  0  1  0            999 V2000
   -0.7400    1.1999   -0.0902 C   0  0  0  0  0  0
   -2.1285    1.1922   -0.0526 C   0  0  0  0  0  0
   -2.8556   -0.0129    0.0005 C   0  0  0  0  0  0
   -2.0970   -1.2005    0.0080 C   0  0  0  0  0  0
   -0.7083   -1.1910   -0.0306 C   0  0  0  0  0  0
   -0.0003    0.0123   -0.0793 C   0  0  0  0  0  0
    1.5184    0.0227   -0.0438 C   0  0  0  0  0  0
    2.0611    0.0145    1.3751 C   0  0  0  0  0  0
    2.2746   -1.1886    2.0520 C   0  0  0  0  0  0
    2.7026   -1.1971    3.3739 C   0  0  0  0  0  0
    2.9410   -0.0087    4.0927 C   0  0  0  0  0  0
    2.7258    1.1964    3.3959 C   0  0  0  0  0  0
    2.2970    1.2030    2.0748 C   0  0  0  0  0  0
    3.3624   -0.0137    5.3983 N   0  0  0  0  0  0
    2.9589   -2.7535    4.1778 Cl  0  0  0  0  0  0
   -2.9385   -2.7570    0.0650 Cl  0  0  0  0  0  0
   -4.2270   -0.0187    0.0391 N   0  0  0  0  0  0
   -0.2198    2.1537   -0.1258 H   0  0  0  0  0  0
   -2.6769    2.1310   -0.0659 H   0  0  0  0  0  0
   -0.1799   -2.1389   -0.0164 H   0  0  0  0  0  0
    1.9039   -0.8467   -0.5886 H   0  0  0  0  0  0
    1.8883    0.9100   -0.5700 H   0  0  0  0  0  0
    2.1027   -2.1374    1.5537 H   0  0  0  0  0  0
    2.9042    2.1359    3.9133 H   0  0  0  0  0  0
    2.1387    2.1567    1.5776 H   0  0  0  0  0  0
    3.5251    0.8500    5.8838 H   0  0  0  0  0  0
    3.5142   -0.8787    5.8861 H   0  0  0  0  0  0
   -4.7367   -0.8837    0.0758 H   0  0  0  0  0  0
   -4.7398    0.8444    0.0308 H   0  0  0  0  0  0
  1  6  1  0  0  0
  1  2  2  0  0  0
  1 18  1  0  0  0
  2  3  1  0  0  0
  2 19  1  0  0  0
  3  4  2  0  0  0
  3 17  1  0  0  0
  4  5  1  0  0  0
  4 16  1  0  0  0
  5  6  2  0  0  0
  5 20  1  0  0  0
  6  7  1  0  0  0
  7  8  1  0  0  0
  7 21  1  0  0  0
  7 22  1  0  0  0
  8 13  1  0  0  0
  8  9  2  0  0  0
  9 10  1  0  0  0
  9 23  1  0  0  0
 10 11  2  0  0  0
 10 15  1  0  0  0
 11 12  1  0  0  0
 11 14  1  0  0  0
 12 13  2  0  0  0
 12 24  1  0  0  0
 13 25  1  0  0  0
 14 26  1  0  0  0
 14 27  1  0  0  0
 17 28  1  0  0  0
 17 29  1  0  0  0
M  END
>  <i_m_Spin_multiplicity> (1)
1

>  <s_j_Task> (1)
Single Point

>  <s_j_QM_Method> (1)
DFT(b3lyp-d3)

>  <s_j_QM_Basis> (1)
cc-pvtz(-f)

>  <i_j_Number_of_canonical_orbitals> (1)
494

>  <i_j_Geometry_convergence_category> (1)
3

>  <r_j_Gas_Phase_Energy> (1)
-1532.81028287785

>  <r_j_Final_Energy> (1)
-1532.81028287785

>  <r_j_HOMO> (1)
-0.205932167410262

>  <r_j_LUMO> (1)
-0.0350474591212485

>  <r_j_Polarizability> (1)
190.857215186414

>  <r_j_QM_Dipole_(debye)> (1)
3.45523555890855

>  <r_j_QM_Dipole_X_(debye)> (1)
-0.757558392410767

>  <r_j_QM_Dipole_Y_(debye)> (1)
3.20802821319057

>  <r_j_QM_Dipole_Z_(debye)> (1)
1.03600822053081

>  <r_j_Lowest_Frequency_(cm-1)> (1)
-386.381479046512

>  <r_j_Highest_Frequency_(cm-1)> (1)
3712.07143135331

>  <r_j_2nd_Lowest_Frequency_(cm-1)> (1)
-384.509662761455

>  <i_j_Num_Negative_Frequencies> (1)
2

>  <r_j_Zero_Point_Energy_(kcal/mol)> (1)
139.058106474481

>  <r_j_Entropy_(cal/mol/K)_298.15K_1.00E+00atm> (1)
118.55343703693

>  <r_j_Enthalpy_(kcal/mol)_298.15K_1.00E+00atm> (1)
9.61597355653699

>  <r_j_Free_Energy_(kcal/mol)_298.15K_1.00E+00atm> (1)
-25.7307336960237

>  <r_j_Internal_Energy_(kcal/mol)_298.15K_1.00E+00atm> (1)
9.02348796770972

>  <r_j_Heat_Capacity_(cal/mol/K)_298.15K_1.00E+00atm> (1)
57.6213403723589

>  <r_j_ln(Q)_298.15K_1.00E+00atm> (1)
43.428454938378

>  <r_j_Total_Internal_Energy_(au)_298.15K_1.00E+00atm> (1)
-1532.57429983453

>  <r_j_Total_Enthalpy_(au)_298.15K_1.00E+00atm> (1)
-1532.57335564864

>  <r_j_Total_Free_Energy_(au)_298.15K_1.00E+00atm> (1)
-1532.6296842125

>  <r_epik_Ionization_Penalty> (1)
  0.0006

>  <r_epik_Ionization_Penalty_Charging> (1)
  0.0000

>  <r_epik_Ionization_Penalty_Neutral> (1)
  0.0006

>  <r_epik_State_Penalty> (1)
  0.0003

>  <r_epik_Charging_Adjusted_Penalty> (1)
0.000347718

>  <i_epik_Tot_Q> (1)
0

>  <i_epik_Tot_abs_Q> (1)
0

>  <s_lp_Force_Field> (1)
S-OPLS

>  <r_lp_Energy> (1)
21.7653

>  <b_lp_Chiralities_Consistent> (1)
1

$$$$
