7586_Diglycidyl resorcinol ether
                    3D
 Schrodinger Suite 2021-3.
 30 32  0  0  1  0            999 V2000
   -3.1395    0.8089   -1.0960 C   0  0  0  0  0  0
   -2.3231    0.8479    0.1225 C   0  0  0  0  0  0
   -3.2677    1.8860   -0.1522 O   0  0  0  0  0  0
   -0.8787    1.2784    0.0744 C   0  0  0  0  0  0
   -0.1013    0.0947   -0.0502 O   0  0  0  0  0  0
    1.2622    0.1977   -0.0824 C   0  0  0  0  0  0
    1.9499    1.4180   -0.0362 C   0  0  0  0  0  0
    3.3505    1.4057   -0.0809 C   0  0  0  0  0  0
    4.0545    0.2018   -0.1724 C   0  0  0  0  0  0
    3.3461   -0.9957   -0.2184 C   0  0  0  0  0  0
    1.9548   -1.0127   -0.1738 C   0  0  0  0  0  0
    4.1199    2.5359   -0.0469 O   0  0  0  0  0  0
    3.4835    3.8015    0.0722 C   0  0  0  0  0  0
    4.5796    4.8361    0.1219 C   0  0  0  0  0  0
    5.0284    5.5189   -1.0967 C   0  0  0  0  0  0
    4.1566    6.1731   -0.1588 O   0  0  0  0  0  0
   -3.9917    0.1324   -1.1533 H   0  0  0  0  0  0
   -2.6861    1.0733   -2.0517 H   0  0  0  0  0  0
   -2.5814    0.1859    0.9504 H   0  0  0  0  0  0
   -0.7260    1.9539   -0.7791 H   0  0  0  0  0  0
   -0.6164    1.8232    0.9932 H   0  0  0  0  0  0
    1.4102    2.3516    0.0289 H   0  0  0  0  0  0
    5.1378    0.2302   -0.2057 H   0  0  0  0  0  0
    3.8887   -1.9337   -0.2897 H   0  0  0  0  0  0
    1.3900   -1.9375   -0.2082 H   0  0  0  0  0  0
    2.8254    4.0052   -0.7841 H   0  0  0  0  0  0
    2.8775    3.8496    0.9887 H   0  0  0  0  0  0
    5.2782    4.7301    0.9532 H   0  0  0  0  0  0
    6.0414    5.9166   -1.1507 H   0  0  0  0  0  0
    4.5766    5.2563   -2.0537 H   0  0  0  0  0  0
  1  3  1  0  0  0
  1  2  1  0  0  0
  1 17  1  0  0  0
  1 18  1  0  0  0
  2  3  1  0  0  0
  2  4  1  0  0  0
  2 19  1  0  0  0
  4  5  1  0  0  0
  4 20  1  0  0  0
  4 21  1  0  0  0
  5  6  1  0  0  0
  6 11  1  0  0  0
  6  7  2  0  0  0
  7  8  1  0  0  0
  7 22  1  0  0  0
  8  9  2  0  0  0
  8 12  1  0  0  0
  9 10  1  0  0  0
  9 23  1  0  0  0
 10 11  2  0  0  0
 10 24  1  0  0  0
 11 25  1  0  0  0
 12 13  1  0  0  0
 13 14  1  0  0  0
 13 26  1  0  0  0
 13 27  1  0  0  0
 14 16  1  0  0  0
 14 15  1  0  0  0
 14 28  1  0  0  0
 15 16  1  0  0  0
 15 29  1  0  0  0
 15 30  1  0  0  0
M  END
>  <i_m_Spin_multiplicity> (1)
1

>  <s_j_Task> (1)
Single Point

>  <s_j_QM_Method> (1)
DFT(b3lyp-d3)

>  <s_j_QM_Basis> (1)
cc-pvtz(-f)

>  <i_j_Number_of_canonical_orbitals> (1)
488

>  <i_j_Geometry_convergence_category> (1)
0

>  <r_j_Gas_Phase_Energy> (1)
-766.761450068071

>  <r_j_Final_Energy> (1)
-766.761450068071

>  <r_j_HOMO> (1)
-0.214448440292563

>  <r_j_LUMO> (1)
-0.00449582326012391

>  <r_j_Polarizability> (1)
151.146223494117

>  <r_j_QM_Dipole_(debye)> (1)
1.53725243765856

>  <r_j_QM_Dipole_X_(debye)> (1)
0.639339815913489

>  <r_j_QM_Dipole_Y_(debye)> (1)
-1.11020406207726

>  <r_j_QM_Dipole_Z_(debye)> (1)
-0.84960967356901

>  <r_j_Lowest_Frequency_(cm-1)> (1)
50.5533077293678

>  <r_j_Highest_Frequency_(cm-1)> (1)
3195.00598017337

>  <r_j_2nd_Lowest_Frequency_(cm-1)> (1)
61.2090523742691

>  <i_j_Num_Negative_Frequencies> (1)
0

>  <r_j_Zero_Point_Energy_(kcal/mol)> (1)
151.709249812959

>  <r_j_Entropy_(cal/mol/K)_298.15K_1.00E+00atm> (1)
119.59882013668

>  <r_j_Enthalpy_(kcal/mol)_298.15K_1.00E+00atm> (1)
9.54687644171188

>  <r_j_Free_Energy_(kcal/mol)_298.15K_1.00E+00atm> (1)
-26.1115117820394

>  <r_j_Internal_Energy_(kcal/mol)_298.15K_1.00E+00atm> (1)
8.95439085288461

>  <r_j_Heat_Capacity_(cal/mol/K)_298.15K_1.00E+00atm> (1)
54.7466614593327

>  <r_j_ln(Q)_298.15K_1.00E+00atm> (1)
44.0711340063523

>  <r_j_Total_Internal_Energy_(au)_298.15K_1.00E+00atm> (1)
-766.505416257671

>  <r_j_Total_Enthalpy_(au)_298.15K_1.00E+00atm> (1)
-766.504472071779

>  <r_j_Total_Free_Energy_(au)_298.15K_1.00E+00atm> (1)
-766.561297330884

>  <r_lp_tautomer_probability> (1)
1

>  <r_epik_Ionization_Penalty> (1)
  0.0000

>  <r_epik_Ionization_Penalty_Charging> (1)
  0.0000

>  <r_epik_Ionization_Penalty_Neutral> (1)
  0.0000

>  <r_epik_State_Penalty> (1)
  0.0000

>  <r_epik_Charging_Adjusted_Penalty> (1)
0

>  <i_epik_Tot_Q> (1)
0

>  <i_epik_Tot_abs_Q> (1)
0

>  <s_lp_Force_Field> (1)
S-OPLS

>  <r_lp_Energy> (1)
26.7721

>  <b_lp_Chiralities_Consistent> (1)
1

$$$$
