76027_2,5-dimethoxybenzoic acid
                    3D
 Schrodinger Suite 2021-3.
 22 22  0  0  1  0            999 V2000
   -0.6582    1.2528    0.0000 C   0  0  0  0  0  0
    0.0177    0.0128    0.0000 O   0  0  0  0  0  0
    1.4048    0.0565    0.0000 C   0  0  0  0  0  0
    2.1632    1.2274    0.0001 C   0  0  0  0  0  0
    3.5626    1.2196    0.0001 C   0  0  0  0  0  0
    4.2067   -0.0385    0.0001 C   0  0  0  0  0  0
    3.4445   -1.2194    0.0000 C   0  0  0  0  0  0
    2.0507   -1.1774    0.0000 C   0  0  0  0  0  0
    5.5824   -0.0681    0.0001 O   0  0  0  0  0  0
    6.2207   -1.3177    0.0000 C   0  0  0  0  0  0
    4.2657    2.6357   -0.0001 C   0  0  0  0  0  0
    5.5139    2.6442   -0.0007 O   0  0  0  0  0  0
    3.4547    3.5992    0.0005 O   0  5  0  0  0  0
   -1.7276    1.0198   -0.0001 H   0  0  0  0  0  0
   -0.4208    1.8545   -0.8889 H   0  0  0  0  0  0
   -0.4210    1.8545    0.8888 H   0  0  0  0  0  0
    1.7309    2.2226    0.0001 H   0  0  0  0  0  0
    3.9276   -2.1903    0.0000 H   0  0  0  0  0  0
    1.4621   -2.0907   -0.0001 H   0  0  0  0  0  0
    7.2942   -1.1085    0.0000 H   0  0  0  0  0  0
    5.9795   -1.9208   -0.8914 H   0  0  0  0  0  0
    5.9795   -1.9209    0.8914 H   0  0  0  0  0  0
  1  2  1  0  0  0
  1 14  1  0  0  0
  1 15  1  0  0  0
  1 16  1  0  0  0
  2  3  1  0  0  0
  3  8  1  0  0  0
  3  4  2  0  0  0
  4  5  1  0  0  0
  4 17  1  0  0  0
  5  6  2  0  0  0
  5 11  1  0  0  0
  6  7  1  0  0  0
  6  9  1  0  0  0
  7  8  2  0  0  0
  7 18  1  0  0  0
  8 19  1  0  0  0
  9 10  1  0  0  0
 10 20  1  0  0  0
 10 21  1  0  0  0
 10 22  1  0  0  0
 11 12  2  0  0  0
 11 13  1  0  0  0
M  END
>  <i_m_Spin_multiplicity> (1)
1

>  <s_j_Task> (1)
Single Point

>  <s_j_QM_Method> (1)
DFT(b3lyp-d3)

>  <s_j_QM_Basis> (1)
cc-pvtz(-f)

>  <i_j_Number_of_canonical_orbitals> (1)
374

>  <i_j_Geometry_convergence_category> (1)
3

>  <r_j_Gas_Phase_Energy> (1)
-649.535203061831

>  <r_j_Final_Energy> (1)
-649.535203061831

>  <r_j_HOMO> (1)
-0.032135699494336

>  <r_j_LUMO> (1)
0.113978042602346

>  <r_j_Polarizability> (1)
124.791054250918

>  <r_j_QM_Dipole_(debye)> (1)
9.62412276822842

>  <r_j_QM_Dipole_X_(debye)> (1)
-4.40909861128387

>  <r_j_QM_Dipole_Y_(debye)> (1)
-8.55474069970033

>  <r_j_QM_Dipole_Z_(debye)> (1)
0.000234089695367684

>  <r_j_Lowest_Frequency_(cm-1)> (1)
63.4890568304099

>  <r_j_Highest_Frequency_(cm-1)> (1)
3147.724584913

>  <r_j_2nd_Lowest_Frequency_(cm-1)> (1)
73.8838632071568

>  <i_j_Num_Negative_Frequencies> (1)
0

>  <r_j_Zero_Point_Energy_(kcal/mol)> (1)
103.963291178207

>  <r_j_Entropy_(cal/mol/K)_298.15K_1.00E+00atm> (1)
105.515024916256

>  <r_j_Enthalpy_(kcal/mol)_298.15K_1.00E+00atm> (1)
7.89896028740523

>  <r_j_Free_Energy_(kcal/mol)_298.15K_1.00E+00atm> (1)
-23.5603443913765

>  <r_j_Internal_Energy_(kcal/mol)_298.15K_1.00E+00atm> (1)
7.30647469857795

>  <r_j_Heat_Capacity_(cal/mol/K)_298.15K_1.00E+00atm> (1)
43.9648270796143

>  <r_j_ln(Q)_298.15K_1.00E+00atm> (1)
39.7652615281499

>  <r_j_Total_Internal_Energy_(au)_298.15K_1.00E+00atm> (1)
-649.357883401816

>  <r_j_Total_Enthalpy_(au)_298.15K_1.00E+00atm> (1)
-649.356939215923

>  <r_j_Total_Free_Energy_(au)_298.15K_1.00E+00atm> (1)
-649.407072809411

>  <r_epik_Ionization_Penalty> (1)
  0.0005

>  <r_epik_Ionization_Penalty_Charging> (1)
  0.0005

>  <r_epik_Ionization_Penalty_Neutral> (1)
  0.0000

>  <r_epik_State_Penalty> (1)
  0.0003

>  <r_epik_Charging_Adjusted_Penalty> (1)
0.000888309383782552

>  <i_epik_Tot_Q> (1)
-1

>  <i_epik_Tot_abs_Q> (1)
1

>  <s_lp_Force_Field> (1)
S-OPLS

>  <r_lp_Energy> (1)
32.039968

>  <b_lp_Chiralities_Consistent> (1)
1

$$$$
