760_Glyoxylic Acid
                    3D
 Schrodinger Suite 2021-3.
  6  5  0  0  1  0            999 V2000
    0.0138    0.0419    0.0000 C   0  0  0  0  0  0
   -0.7288    1.0059    0.0000 O   0  0  0  0  0  0
    1.5827    0.0397    0.0000 C   0  0  0  0  0  0
    2.0392   -1.1335    0.0000 O   0  0  0  0  0  0
    2.1453    1.1548    0.0000 O   0  5  0  0  0  0
   -0.4086   -1.0018    0.0000 H   0  0  0  0  0  0
  1  2  2  0  0  0
  1  3  1  0  0  0
  1  6  1  0  0  0
  3  4  2  0  0  0
  3  5  1  0  0  0
M  END
>  <i_m_Spin_multiplicity> (1)
1

>  <s_j_Task> (1)
Single Point

>  <s_j_QM_Method> (1)
DFT(b3lyp-d3)

>  <s_j_QM_Basis> (1)
cc-pvtz(-f)

>  <i_j_Number_of_canonical_orbitals> (1)
124

>  <i_j_Geometry_convergence_category> (1)
0

>  <r_j_Gas_Phase_Energy> (1)
-302.639756786089

>  <r_j_Final_Energy> (1)
-302.639756786089

>  <r_j_HOMO> (1)
-0.0396782671337207

>  <r_j_LUMO> (1)
0.116469501932918

>  <r_j_Polarizability> (1)
34.5495687627872

>  <r_j_QM_Dipole_(debye)> (1)
2.73664540739333

>  <r_j_QM_Dipole_X_(debye)> (1)
-2.6573445017166

>  <r_j_QM_Dipole_Y_(debye)> (1)
-0.654024682257959

>  <r_j_QM_Dipole_Z_(debye)> (1)
9.66914335644508e-07

>  <r_j_Lowest_Frequency_(cm-1)> (1)
109.232683085071

>  <r_j_Highest_Frequency_(cm-1)> (1)
2703.44360479738

>  <r_j_2nd_Lowest_Frequency_(cm-1)> (1)
297.547289410086

>  <i_j_Num_Negative_Frequencies> (1)
0

>  <r_j_Zero_Point_Energy_(kcal/mol)> (1)
18.4253927646011

>  <r_j_Entropy_(cal/mol/K)_298.15K_1.00E+00atm> (1)
70.3177234283555

>  <r_j_Enthalpy_(kcal/mol)_298.15K_1.00E+00atm> (1)
3.46712848116497

>  <r_j_Free_Energy_(kcal/mol)_298.15K_1.00E+00atm> (1)
-17.4981007589992

>  <r_j_Internal_Energy_(kcal/mol)_298.15K_1.00E+00atm> (1)
2.87464289233769

>  <r_j_Heat_Capacity_(cal/mol/K)_298.15K_1.00E+00atm> (1)
13.8886967349276

>  <r_j_ln(Q)_298.15K_1.00E+00atm> (1)
29.5333778390016

>  <r_j_Total_Internal_Energy_(au)_298.15K_1.00E+00atm> (1)
-302.605813018424

>  <r_j_Total_Enthalpy_(au)_298.15K_1.00E+00atm> (1)
-302.604868832532

>  <r_j_Total_Free_Energy_(au)_298.15K_1.00E+00atm> (1)
-302.638279052206

>  <r_lp_tautomer_probability> (1)
1

>  <r_epik_Ionization_Penalty> (1)
  0.0000

>  <r_epik_Ionization_Penalty_Charging> (1)
  0.0000

>  <r_epik_Ionization_Penalty_Neutral> (1)
  0.0000

>  <r_epik_State_Penalty> (1)
  0.0000

>  <r_epik_Charging_Adjusted_Penalty> (1)
1.04876e-05

>  <i_epik_Tot_Q> (1)
-1

>  <i_epik_Tot_abs_Q> (1)
1

>  <s_lp_Force_Field> (1)
S-OPLS

>  <r_lp_Energy> (1)
11.6438

>  <b_lp_Chiralities_Consistent> (1)
1

$$$$
