76492_2,6-Dimethyl-1-heptene
                    3D
 Schrodinger Suite 2021-3.
 27 26  0  0  1  0            999 V2000
   -0.1757    2.2456    1.3923 C   0  0  0  0  0  0
   -0.5388    1.5107    0.0935 C   0  0  0  0  0  0
   -2.0622    1.4803   -0.0965 C   0  0  0  0  0  0
    0.0356    0.0823    0.0478 C   0  0  0  0  0  0
    1.5662   -0.0037    0.0806 C   0  0  0  0  0  0
    2.0770   -1.4475   -0.0925 C   0  0  0  0  0  0
    3.5857   -1.5678   -0.0866 C   0  0  0  0  0  0
    4.2665   -1.9056   -1.1867 C   0  0  0  0  0  0
    4.2792   -1.2840    1.2239 C   0  0  0  0  0  0
   -0.5533    1.6970    2.2643 H   0  0  0  0  0  0
   -0.6190    3.2469    1.4129 H   0  0  0  0  0  0
    0.9055    2.3613    1.5124 H   0  0  0  0  0  0
   -0.1032    2.0714   -0.7473 H   0  0  0  0  0  0
   -2.5441    0.9298    0.7211 H   0  0  0  0  0  0
   -2.3392    0.9897   -1.0359 H   0  0  0  0  0  0
   -2.4827    2.4916   -0.1081 H   0  0  0  0  0  0
   -0.3799   -0.4958    0.8869 H   0  0  0  0  0  0
   -0.3251   -0.4105   -0.8659 H   0  0  0  0  0  0
    1.9888    0.6207   -0.7180 H   0  0  0  0  0  0
    1.9414    0.4062    1.0251 H   0  0  0  0  0  0
    1.6605   -2.0649    0.7176 H   0  0  0  0  0  0
    1.6799   -1.8549   -1.0300 H   0  0  0  0  0  0
    3.7631   -2.1127   -2.1271 H   0  0  0  0  0  0
    5.3501   -1.9861   -1.1871 H   0  0  0  0  0  0
    3.8889   -1.9326    2.0189 H   0  0  0  0  0  0
    4.1089   -0.2516    1.5524 H   0  0  0  0  0  0
    5.3591   -1.4401    1.1545 H   0  0  0  0  0  0
  1  2  1  0  0  0
  1 10  1  0  0  0
  1 11  1  0  0  0
  1 12  1  0  0  0
  2  3  1  0  0  0
  2  4  1  0  0  0
  2 13  1  0  0  0
  3 14  1  0  0  0
  3 15  1  0  0  0
  3 16  1  0  0  0
  4  5  1  0  0  0
  4 17  1  0  0  0
  4 18  1  0  0  0
  5  6  1  0  0  0
  5 19  1  0  0  0
  5 20  1  0  0  0
  6  7  1  0  0  0
  6 21  1  0  0  0
  6 22  1  0  0  0
  7  8  2  0  0  0
  7  9  1  0  0  0
  8 23  1  0  0  0
  8 24  1  0  0  0
  9 25  1  0  0  0
  9 26  1  0  0  0
  9 27  1  0  0  0
M  END
>  <i_m_Spin_multiplicity> (1)
1

>  <s_j_Task> (1)
Single Point

>  <s_j_QM_Method> (1)
DFT(b3lyp-d3)

>  <s_j_QM_Basis> (1)
cc-pvtz(-f)

>  <i_j_Number_of_canonical_orbitals> (1)
365

>  <i_j_Geometry_convergence_category> (1)
0

>  <r_j_Gas_Phase_Energy> (1)
-353.937679685247

>  <r_j_Final_Energy> (1)
-353.937679685247

>  <r_j_HOMO> (1)
-0.253646728845049

>  <r_j_LUMO> (1)
0.00521750798673431

>  <r_j_Polarizability> (1)
110.678796916092

>  <r_j_QM_Dipole_(debye)> (1)
0.514760024088552

>  <r_j_QM_Dipole_X_(debye)> (1)
-0.267162355456561

>  <r_j_QM_Dipole_Y_(debye)> (1)
0.267745740259145

>  <r_j_QM_Dipole_Z_(debye)> (1)
0.349162393163455

>  <r_j_Lowest_Frequency_(cm-1)> (1)
76.9644444049134

>  <r_j_Highest_Frequency_(cm-1)> (1)
3166.03549165553

>  <r_j_2nd_Lowest_Frequency_(cm-1)> (1)
86.1456259769594

>  <i_j_Num_Negative_Frequencies> (1)
0

>  <r_j_Zero_Point_Energy_(kcal/mol)> (1)
156.779852650918

>  <r_j_Entropy_(cal/mol/K)_298.15K_1.00E+00atm> (1)
100.684118431669

>  <r_j_Enthalpy_(kcal/mol)_298.15K_1.00E+00atm> (1)
7.51440306013733

>  <r_j_Free_Energy_(kcal/mol)_298.15K_1.00E+00atm> (1)
-22.5045668502647

>  <r_j_Internal_Energy_(kcal/mol)_298.15K_1.00E+00atm> (1)
6.92191747131006

>  <r_j_Heat_Capacity_(cal/mol/K)_298.15K_1.00E+00atm> (1)
42.0877090222669

>  <r_j_ln(Q)_298.15K_1.00E+00atm> (1)
37.9833151635109

>  <r_j_Total_Internal_Energy_(au)_298.15K_1.00E+00atm> (1)
-353.676804307346

>  <r_j_Total_Enthalpy_(au)_298.15K_1.00E+00atm> (1)
-353.675860121454

>  <r_j_Total_Free_Energy_(au)_298.15K_1.00E+00atm> (1)
-353.72369839537

>  <r_lp_tautomer_probability> (1)
1

>  <r_epik_Ionization_Penalty> (1)
  0.0000

>  <r_epik_Ionization_Penalty_Charging> (1)
  0.0000

>  <r_epik_Ionization_Penalty_Neutral> (1)
  0.0000

>  <r_epik_State_Penalty> (1)
  0.0000

>  <r_epik_Charging_Adjusted_Penalty> (1)
0

>  <i_epik_Tot_Q> (1)
0

>  <i_epik_Tot_abs_Q> (1)
0

>  <s_lp_Force_Field> (1)
S-OPLS

>  <r_lp_Energy> (1)
-0.781424

>  <b_lp_Chiralities_Consistent> (1)
1

$$$$
