7720_2-Ethyl hexanol
                    3D
 Schrodinger Suite 2021-3.
 27 26  0  0  1  0            999 V2000
   -2.6970    2.9224   -0.1352 C   0  0  0  0  0  0
   -2.1237    1.5144    0.0507 C   0  0  0  0  0  0
   -0.5905    1.4824    0.0254 C   0  0  0  0  0  0
   -0.0196    0.0697    0.2119 C   0  0  0  0  0  0
    1.5150   -0.0425    0.1196 C   0  0  0  0  0  0
    1.9828   -1.5065   -0.0130 C   0  0  0  0  0  0
    1.6815   -2.1442   -1.3731 C   0  0  0  0  0  0
    2.1894    0.6192    1.3249 C   0  0  0  0  0  0
    3.5982    0.6350    1.1015 O   0  0  0  0  0  0
   -3.7918    2.9176   -0.1152 H   0  0  0  0  0  0
   -2.3824    3.3524   -1.0931 H   0  0  0  0  0  0
   -2.3518    3.5964    0.6573 H   0  0  0  0  0  0
   -2.4780    1.0955    1.0026 H   0  0  0  0  0  0
   -2.5119    0.8518   -0.7349 H   0  0  0  0  0  0
   -0.2345    1.8925   -0.9304 H   0  0  0  0  0  0
   -0.2106    2.1569    0.8039 H   0  0  0  0  0  0
   -0.3501   -0.3349    1.1805 H   0  0  0  0  0  0
   -0.4681   -0.5807   -0.5485 H   0  0  0  0  0  0
    1.8546    0.5065   -0.7715 H   0  0  0  0  0  0
    3.0623   -1.5359    0.1649 H   0  0  0  0  0  0
    1.5173   -2.0993    0.7881 H   0  0  0  0  0  0
    2.0604   -3.1707   -1.4177 H   0  0  0  0  0  0
    2.1583   -1.5788   -2.1819 H   0  0  0  0  0  0
    0.6081   -2.1838   -1.5858 H   0  0  0  0  0  0
    1.8082    1.6423    1.4617 H   0  0  0  0  0  0
    1.9341    0.0496    2.2359 H   0  0  0  0  0  0
    4.0231    0.9917    1.8911 H   0  0  0  0  0  0
  1  2  1  0  0  0
  1 10  1  0  0  0
  1 11  1  0  0  0
  1 12  1  0  0  0
  2  3  1  0  0  0
  2 13  1  0  0  0
  2 14  1  0  0  0
  3  4  1  0  0  0
  3 15  1  0  0  0
  3 16  1  0  0  0
  4  5  1  0  0  0
  4 17  1  0  0  0
  4 18  1  0  0  0
  5  6  1  0  0  0
  5  8  1  0  0  0
  5 19  1  0  0  0
  6  7  1  0  0  0
  6 20  1  0  0  0
  6 21  1  0  0  0
  7 22  1  0  0  0
  7 23  1  0  0  0
  7 24  1  0  0  0
  8  9  1  0  0  0
  8 25  1  0  0  0
  8 26  1  0  0  0
  9 27  1  0  0  0
M  END
>  <i_m_Spin_multiplicity> (1)
1

>  <s_j_Task> (1)
Single Point

>  <s_j_QM_Method> (1)
DFT(b3lyp-d3)

>  <s_j_QM_Basis> (1)
cc-pvtz(-f)

>  <i_j_Number_of_canonical_orbitals> (1)
368

>  <i_j_Geometry_convergence_category> (1)
0

>  <r_j_Gas_Phase_Energy> (1)
-391.081682628647

>  <r_j_Final_Energy> (1)
-391.081682628647

>  <r_j_HOMO> (1)
-0.27472058468221

>  <r_j_LUMO> (1)
0.0258841030229941

>  <r_j_Polarizability> (1)
103.396782778507

>  <r_j_QM_Dipole_(debye)> (1)
1.42896274841259

>  <r_j_QM_Dipole_X_(debye)> (1)
-0.517643190382238

>  <r_j_QM_Dipole_Y_(debye)> (1)
0.49414619951143

>  <r_j_QM_Dipole_Z_(debye)> (1)
1.23685067704642

>  <r_j_Lowest_Frequency_(cm-1)> (1)
84.0614203534345

>  <r_j_Highest_Frequency_(cm-1)> (1)
3777.99299469911

>  <r_j_2nd_Lowest_Frequency_(cm-1)> (1)
101.324914888856

>  <i_j_Num_Negative_Frequencies> (1)
0

>  <r_j_Zero_Point_Energy_(kcal/mol)> (1)
157.124343275811

>  <r_j_Entropy_(cal/mol/K)_298.15K_1.00E+00atm> (1)
102.51193975864

>  <r_j_Enthalpy_(kcal/mol)_298.15K_1.00E+00atm> (1)
7.71789397946268

>  <r_j_Free_Energy_(kcal/mol)_298.15K_1.00E+00atm> (1)
-22.8460408595758

>  <r_j_Internal_Energy_(kcal/mol)_298.15K_1.00E+00atm> (1)
7.1254083906354

>  <r_j_Heat_Capacity_(cal/mol/K)_298.15K_1.00E+00atm> (1)
42.3221508326847

>  <r_j_ln(Q)_298.15K_1.00E+00atm> (1)
38.5596566235403

>  <r_j_Total_Internal_Energy_(au)_298.15K_1.00E+00atm> (1)
-390.819933986564

>  <r_j_Total_Enthalpy_(au)_298.15K_1.00E+00atm> (1)
-390.818989800672

>  <r_j_Total_Free_Energy_(au)_298.15K_1.00E+00atm> (1)
-390.867696531487

>  <r_lp_tautomer_probability> (1)
1

>  <r_epik_Ionization_Penalty> (1)
  0.0000

>  <r_epik_Ionization_Penalty_Charging> (1)
  0.0000

>  <r_epik_Ionization_Penalty_Neutral> (1)
  0.0000

>  <r_epik_State_Penalty> (1)
  0.0000

>  <r_epik_Charging_Adjusted_Penalty> (1)
0

>  <i_epik_Tot_Q> (1)
0

>  <i_epik_Tot_abs_Q> (1)
0

>  <s_lp_Force_Field> (1)
S-OPLS

>  <r_lp_Energy> (1)
4.02583

>  <b_lp_Chiralities_Consistent> (1)
1

$$$$
