7734_1,4-diethylbenzene
                    3D
 Schrodinger Suite 2021-3.
 24 24  0  0  1  0            999 V2000
   -0.5878    1.4566   -0.0002 C   0  0  0  0  0  0
   -0.0428    0.0174    0.0002 C   0  0  0  0  0  0
    1.4700   -0.0249    0.0001 C   0  0  0  0  0  0
    2.1929   -0.0229    1.1989 C   0  0  0  0  0  0
    3.5868   -0.0229    1.1989 C   0  0  0  0  0  0
    4.3096   -0.0250   -0.0001 C   0  0  0  0  0  0
    3.5867   -0.0230   -1.1990 C   0  0  0  0  0  0
    2.1927   -0.0230   -1.1988 C   0  0  0  0  0  0
    5.8225    0.0174   -0.0002 C   0  0  0  0  0  0
    6.3674    1.4566    0.0003 C   0  0  0  0  0  0
   -1.6830    1.4661   -0.0001 H   0  0  0  0  0  0
   -0.2409    2.0025   -0.8837 H   0  0  0  0  0  0
   -0.2408    2.0030    0.8830 H   0  0  0  0  0  0
   -0.4264   -0.5147    0.8790 H   0  0  0  0  0  0
   -0.4265   -0.5153   -0.8782 H   0  0  0  0  0  0
    1.6561   -0.0291    2.1450 H   0  0  0  0  0  0
    4.1237   -0.0291    2.1449 H   0  0  0  0  0  0
    4.1234   -0.0293   -2.1451 H   0  0  0  0  0  0
    1.6558   -0.0293   -2.1448 H   0  0  0  0  0  0
    6.2063   -0.5154    0.8782 H   0  0  0  0  0  0
    6.2062   -0.5147   -0.8790 H   0  0  0  0  0  0
    7.4626    1.4662    0.0002 H   0  0  0  0  0  0
    6.0205    2.0023    0.8839 H   0  0  0  0  0  0
    6.0204    2.0030   -0.8828 H   0  0  0  0  0  0
  1  2  1  0  0  0
  1 11  1  0  0  0
  1 12  1  0  0  0
  1 13  1  0  0  0
  2  3  1  0  0  0
  2 14  1  0  0  0
  2 15  1  0  0  0
  3  8  1  0  0  0
  3  4  2  0  0  0
  4  5  1  0  0  0
  4 16  1  0  0  0
  5  6  2  0  0  0
  5 17  1  0  0  0
  6  7  1  0  0  0
  6  9  1  0  0  0
  7  8  2  0  0  0
  7 18  1  0  0  0
  8 19  1  0  0  0
  9 10  1  0  0  0
  9 20  1  0  0  0
  9 21  1  0  0  0
 10 22  1  0  0  0
 10 23  1  0  0  0
 10 24  1  0  0  0
M  END
>  <i_m_Spin_multiplicity> (1)
1

>  <s_j_Task> (1)
Single Point

>  <s_j_QM_Method> (1)
DFT(b3lyp-d3)

>  <s_j_QM_Basis> (1)
cc-pvtz(-f)

>  <i_j_Number_of_canonical_orbitals> (1)
348

>  <i_j_Geometry_convergence_category> (1)
0

>  <r_j_Gas_Phase_Energy> (1)
-389.654106110547

>  <r_j_Final_Energy> (1)
-389.654106110547

>  <r_j_HOMO> (1)
-0.234348546156686

>  <r_j_LUMO> (1)
-0.0093448050055574

>  <r_j_Polarizability> (1)
116.733810580546

>  <r_j_QM_Dipole_(debye)> (1)
0.0738737134332164

>  <r_j_QM_Dipole_X_(debye)> (1)
0.00119966109429991

>  <r_j_QM_Dipole_Y_(debye)> (1)
0.0738618124313191

>  <r_j_QM_Dipole_Z_(debye)> (1)
-0.000564813272193135

>  <r_j_Lowest_Frequency_(cm-1)> (1)
79.0621832294812

>  <r_j_Highest_Frequency_(cm-1)> (1)
3124.27137483408

>  <r_j_2nd_Lowest_Frequency_(cm-1)> (1)
87.4226497187523

>  <i_j_Num_Negative_Frequencies> (1)
0

>  <r_j_Zero_Point_Energy_(kcal/mol)> (1)
133.251583176477

>  <r_j_Entropy_(cal/mol/K)_298.15K_1.00E+00atm> (1)
94.2388432498466

>  <r_j_Enthalpy_(kcal/mol)_298.15K_1.00E+00atm> (1)
6.69955601751384

>  <r_j_Free_Energy_(kcal/mol)_298.15K_1.00E+00atm> (1)
-21.3977550974279

>  <r_j_Internal_Energy_(kcal/mol)_298.15K_1.00E+00atm> (1)
6.10707042868656

>  <r_j_Heat_Capacity_(cal/mol/K)_298.15K_1.00E+00atm> (1)
37.9738082102675

>  <r_j_ln(Q)_298.15K_1.00E+00atm> (1)
36.1152330131458

>  <r_j_Total_Internal_Energy_(au)_298.15K_1.00E+00atm> (1)
-389.432023958376

>  <r_j_Total_Enthalpy_(au)_298.15K_1.00E+00atm> (1)
-389.431079772484

>  <r_j_Total_Free_Energy_(au)_298.15K_1.00E+00atm> (1)
-389.475855688161

>  <r_lp_tautomer_probability> (1)
1

>  <r_epik_Ionization_Penalty> (1)
  0.0000

>  <r_epik_Ionization_Penalty_Charging> (1)
  0.0000

>  <r_epik_Ionization_Penalty_Neutral> (1)
  0.0000

>  <r_epik_State_Penalty> (1)
  0.0000

>  <r_epik_Charging_Adjusted_Penalty> (1)
0

>  <i_epik_Tot_Q> (1)
0

>  <i_epik_Tot_abs_Q> (1)
0

>  <s_lp_Force_Field> (1)
S-OPLS

>  <r_lp_Energy> (1)
8.85837

>  <b_lp_Chiralities_Consistent> (1)
1

$$$$
