7742_5-propyldihydro-2(3H)-furanone
                    3D
 Schrodinger Suite 2021-3.
 21 21  0  0  1  0            999 V2000
   -0.5610    1.4476    0.0561 C   0  0  0  0  0  0
   -0.0216    0.0168   -0.0156 C   0  0  0  0  0  0
    1.5105   -0.0362   -0.0027 C   0  0  0  0  0  0
    2.0696   -1.4482   -0.0589 C   0  0  0  0  0  0
    3.6042   -1.5596   -0.0417 C   0  0  0  0  0  0
    3.8269   -2.9029    0.6556 C   0  0  0  0  0  0
    2.6001   -3.0368    1.5541 C   0  0  0  0  0  0
    2.4412   -3.7657    2.4977 O   0  0  0  0  0  0
    1.6351   -2.1746    1.1224 O   0  0  0  0  0  0
   -1.6554    1.4615    0.0461 H   0  0  0  0  0  0
   -0.2113    2.0472   -0.7925 H   0  0  0  0  0  0
   -0.2299    1.9478    0.9733 H   0  0  0  0  0  0
   -0.4002   -0.5714    0.8275 H   0  0  0  0  0  0
   -0.3919   -0.4737   -0.9262 H   0  0  0  0  0  0
    1.9155    0.5214   -0.8587 H   0  0  0  0  0  0
    1.8951    0.4497    0.9037 H   0  0  0  0  0  0
    1.6593   -1.9795   -0.9305 H   0  0  0  0  0  0
    4.0310   -1.4986   -1.0454 H   0  0  0  0  0  0
    4.0245   -0.7439    0.5573 H   0  0  0  0  0  0
    3.8177   -3.7413   -0.0516 H   0  0  0  0  0  0
    4.7388   -2.9795    1.2496 H   0  0  0  0  0  0
  1  2  1  0  0  0
  1 10  1  0  0  0
  1 11  1  0  0  0
  1 12  1  0  0  0
  2  3  1  0  0  0
  2 13  1  0  0  0
  2 14  1  0  0  0
  3  4  1  0  0  0
  3 15  1  0  0  0
  3 16  1  0  0  0
  4  9  1  0  0  0
  4  5  1  0  0  0
  4 17  1  0  0  0
  5  6  1  0  0  0
  5 18  1  0  0  0
  5 19  1  0  0  0
  6  7  1  0  0  0
  6 20  1  0  0  0
  6 21  1  0  0  0
  7  8  2  0  0  0
  7  9  1  0  0  0
M  END
>  <i_m_Spin_multiplicity> (1)
1

>  <s_j_Task> (1)
Single Point

>  <s_j_QM_Method> (1)
DFT(b3lyp-d3)

>  <s_j_QM_Basis> (1)
cc-pvtz(-f)

>  <i_j_Number_of_canonical_orbitals> (1)
314

>  <i_j_Geometry_convergence_category> (1)
0

>  <r_j_Gas_Phase_Energy> (1)
-424.603785661926

>  <r_j_Final_Energy> (1)
-424.603785661926

>  <r_j_HOMO> (1)
-0.29530353472575

>  <r_j_LUMO> (1)
-0.0185051388997532

>  <r_j_Polarizability> (1)
86.8993190403244

>  <r_j_QM_Dipole_(debye)> (1)
4.47133957251299

>  <r_j_QM_Dipole_X_(debye)> (1)
1.46666914909044

>  <r_j_QM_Dipole_Y_(debye)> (1)
2.34169541867098

>  <r_j_QM_Dipole_Z_(debye)> (1)
-3.51542625381365

>  <r_j_Lowest_Frequency_(cm-1)> (1)
95.1037874420661

>  <r_j_Highest_Frequency_(cm-1)> (1)
3083.20945216795

>  <r_j_2nd_Lowest_Frequency_(cm-1)> (1)
130.139529105894

>  <i_j_Num_Negative_Frequencies> (1)
0

>  <r_j_Zero_Point_Energy_(kcal/mol)> (1)
114.614243264564

>  <r_j_Entropy_(cal/mol/K)_298.15K_1.00E+00atm> (1)
91.6036025413221

>  <r_j_Enthalpy_(kcal/mol)_298.15K_1.00E+00atm> (1)
6.1281827103587

>  <r_j_Free_Energy_(kcal/mol)_298.15K_1.00E+00atm> (1)
-21.1834313873365

>  <r_j_Internal_Energy_(kcal/mol)_298.15K_1.00E+00atm> (1)
5.53569712153143

>  <r_j_Heat_Capacity_(cal/mol/K)_298.15K_1.00E+00atm> (1)
33.4043201471643

>  <r_j_ln(Q)_298.15K_1.00E+00atm> (1)
35.753496434007

>  <r_j_Total_Internal_Energy_(au)_298.15K_1.00E+00atm> (1)
-424.412314542954

>  <r_j_Total_Enthalpy_(au)_298.15K_1.00E+00atm> (1)
-424.411370357062

>  <r_j_Total_Free_Energy_(au)_298.15K_1.00E+00atm> (1)
-424.454894184834

>  <r_lp_tautomer_probability> (1)
1

>  <r_epik_Ionization_Penalty> (1)
  0.0000

>  <r_epik_Ionization_Penalty_Charging> (1)
  0.0000

>  <r_epik_Ionization_Penalty_Neutral> (1)
  0.0000

>  <r_epik_State_Penalty> (1)
  0.0000

>  <r_epik_Charging_Adjusted_Penalty> (1)
0

>  <i_epik_Tot_Q> (1)
0

>  <i_epik_Tot_abs_Q> (1)
0

>  <s_lp_Force_Field> (1)
S-OPLS

>  <r_lp_Energy> (1)
-2.74533

>  <b_lp_Chiralities_Consistent> (1)
1

>  <s_epik_Chemistry_Notes> (1)
This compound has an ester and may undergo hydrolysis at high or low pH.

$$$$
