77653_2,4,4-trimethylheptane
                    3D
 Schrodinger Suite 2021-3.
 32 31  0  0  1  0            999 V2000
   -2.8604   -1.1173    2.6804 C   0  0  0  0  0  0
   -2.3019   -0.6536    1.3304 C   0  0  0  0  0  0
   -0.7680   -0.5722    1.3417 C   0  0  0  0  0  0
   -0.0771   -0.0577    0.0483 C   0  0  0  0  0  0
   -0.5327   -0.8544   -1.1886 C   0  0  0  0  0  0
   -0.4442    1.4281   -0.1608 C   0  0  0  0  0  0
    1.4738   -0.1224    0.2044 C   0  0  0  0  0  0
    2.2372   -1.4361   -0.0813 C   0  0  0  0  0  0
    1.8754   -2.6122    0.8380 C   0  0  0  0  0  0
    3.7485   -1.1619    0.0040 C   0  0  0  0  0  0
   -3.9535   -1.1821    2.6627 H   0  0  0  0  0  0
   -2.5798   -0.4249    3.4826 H   0  0  0  0  0  0
   -2.4717   -2.1064    2.9495 H   0  0  0  0  0  0
   -2.6320   -1.3483    0.5485 H   0  0  0  0  0  0
   -2.7364    0.3211    1.0783 H   0  0  0  0  0  0
   -0.4580    0.0809    2.1705 H   0  0  0  0  0  0
   -0.3839   -1.5659    1.5903 H   0  0  0  0  0  0
    0.0408   -0.5564   -2.0735 H   0  0  0  0  0  0
   -1.5894   -0.6739   -1.4084 H   0  0  0  0  0  0
   -0.4018   -1.9328   -1.0523 H   0  0  0  0  0  0
    0.0081    1.8161   -1.0805 H   0  0  0  0  0  0
   -0.0841    2.0417    0.6733 H   0  0  0  0  0  0
   -1.5257    1.5733   -0.2414 H   0  0  0  0  0  0
    1.8973    0.6291   -0.4758 H   0  0  0  0  0  0
    1.7335    0.2192    1.2176 H   0  0  0  0  0  0
    2.0172   -1.7384   -1.1142 H   0  0  0  0  0  0
    1.9862   -2.3339    1.8931 H   0  0  0  0  0  0
    2.5374   -3.4649    0.6489 H   0  0  0  0  0  0
    0.8495   -2.9577    0.6884 H   0  0  0  0  0  0
    4.0328   -0.8665    1.0217 H   0  0  0  0  0  0
    4.0509   -0.3550   -0.6725 H   0  0  0  0  0  0
    4.3283   -2.0541   -0.2565 H   0  0  0  0  0  0
  1  2  1  0  0  0
  1 11  1  0  0  0
  1 12  1  0  0  0
  1 13  1  0  0  0
  2  3  1  0  0  0
  2 14  1  0  0  0
  2 15  1  0  0  0
  3  4  1  0  0  0
  3 16  1  0  0  0
  3 17  1  0  0  0
  4  5  1  0  0  0
  4  6  1  0  0  0
  4  7  1  0  0  0
  5 18  1  0  0  0
  5 19  1  0  0  0
  5 20  1  0  0  0
  6 21  1  0  0  0
  6 22  1  0  0  0
  6 23  1  0  0  0
  7  8  1  0  0  0
  7 24  1  0  0  0
  7 25  1  0  0  0
  8  9  1  0  0  0
  8 10  1  0  0  0
  8 26  1  0  0  0
  9 27  1  0  0  0
  9 28  1  0  0  0
  9 29  1  0  0  0
 10 30  1  0  0  0
 10 31  1  0  0  0
 10 32  1  0  0  0
M  END
>  <i_m_Spin_multiplicity> (1)
1

>  <s_j_Task> (1)
Single Point

>  <s_j_QM_Method> (1)
DFT(b3lyp-d3)

>  <s_j_QM_Basis> (1)
cc-pvtz(-f)

>  <i_j_Number_of_canonical_orbitals> (1)
425

>  <i_j_Geometry_convergence_category> (1)
0

>  <r_j_Gas_Phase_Energy> (1)
-394.495891932321

>  <r_j_Final_Energy> (1)
-394.495891932321

>  <r_j_HOMO> (1)
-0.300657809055154

>  <r_j_LUMO> (1)
0.0161647054435462

>  <r_j_Polarizability> (1)
122.35985147148

>  <r_j_QM_Dipole_(debye)> (1)
0.159687929208381

>  <r_j_QM_Dipole_X_(debye)> (1)
-0.0233421193091353

>  <r_j_QM_Dipole_Y_(debye)> (1)
-0.0629730211569273

>  <r_j_QM_Dipole_Z_(debye)> (1)
-0.144878496704612

>  <r_j_Lowest_Frequency_(cm-1)> (1)
94.4570081694272

>  <r_j_Highest_Frequency_(cm-1)> (1)
3065.26221095925

>  <r_j_2nd_Lowest_Frequency_(cm-1)> (1)
99.8626571344111

>  <i_j_Num_Negative_Frequencies> (1)
0

>  <r_j_Zero_Point_Energy_(kcal/mol)> (1)
189.316498335129

>  <r_j_Entropy_(cal/mol/K)_298.15K_1.00E+00atm> (1)
105.700832658267

>  <r_j_Enthalpy_(kcal/mol)_298.15K_1.00E+00atm> (1)
8.42958744376594

>  <r_j_Free_Energy_(kcal/mol)_298.15K_1.00E+00atm> (1)
-23.0851158132963

>  <r_j_Internal_Energy_(kcal/mol)_298.15K_1.00E+00atm> (1)
7.83710185493867

>  <r_j_Heat_Capacity_(cal/mol/K)_298.15K_1.00E+00atm> (1)
49.4461774799273

>  <r_j_ln(Q)_298.15K_1.00E+00atm> (1)
38.9631684696153

>  <r_j_Total_Internal_Energy_(au)_298.15K_1.00E+00atm> (1)
-394.181707669588

>  <r_j_Total_Enthalpy_(au)_298.15K_1.00E+00atm> (1)
-394.180763483695

>  <r_j_Total_Free_Energy_(au)_298.15K_1.00E+00atm> (1)
-394.230985360438

>  <r_lp_tautomer_probability> (1)
1

>  <r_epik_Ionization_Penalty> (1)
  0.0000

>  <r_epik_Ionization_Penalty_Charging> (1)
  0.0000

>  <r_epik_Ionization_Penalty_Neutral> (1)
  0.0000

>  <r_epik_State_Penalty> (1)
  0.0000

>  <r_epik_Charging_Adjusted_Penalty> (1)
0

>  <i_epik_Tot_Q> (1)
0

>  <i_epik_Tot_abs_Q> (1)
0

>  <s_lp_Force_Field> (1)
S-OPLS

>  <r_lp_Energy> (1)
11.869605

>  <b_lp_Chiralities_Consistent> (1)
1

$$$$
