7785_5-undecyldihydro-2(3H)-furanone
                    3D
 Schrodinger Suite 2021-3.
 45 45  0  0  1  0            999 V2000
   -5.1916    4.1709   -0.3004 C   0  0  0  0  0  0
   -4.5124    2.8002   -0.2277 C   0  0  0  0  0  0
   -2.9837    2.8878   -0.1402 C   0  0  0  0  0  0
   -2.3025    1.5164   -0.0759 C   0  0  0  0  0  0
   -0.7730    1.5872    0.0052 C   0  0  0  0  0  0
   -0.1116    0.2049    0.0459 C   0  0  0  0  0  0
    1.4197    0.2488    0.1118 C   0  0  0  0  0  0
    2.0498   -1.1507    0.1191 C   0  0  0  0  0  0
    3.5854   -1.1678    0.0942 C   0  0  0  0  0  0
    4.2473   -0.5923    1.3527 C   0  0  0  0  0  0
    5.7727   -0.7443    1.3337 C   0  0  0  0  0  0
    6.4591   -0.1861    2.5692 C   0  0  0  0  0  0
    7.9907   -0.3326    2.6021 C   0  0  0  0  0  0
    8.4184    0.8883    3.4190 C   0  0  0  0  0  0
    7.3116    1.9014    3.1378 C   0  0  0  0  0  0
    7.3259    3.0912    3.3139 O   0  0  0  0  0  0
    6.2253    1.2472    2.6346 O   0  0  0  0  0  0
   -6.2809    4.0779   -0.3622 H   0  0  0  0  0  0
   -4.8543    4.7316   -1.1798 H   0  0  0  0  0  0
   -4.9578    4.7744    0.5842 H   0  0  0  0  0  0
   -4.8924    2.2467    0.6419 H   0  0  0  0  0  0
   -4.7892    2.2056   -1.1092 H   0  0  0  0  0  0
   -2.6019    3.4444   -1.0082 H   0  0  0  0  0  0
   -2.7032    3.4779    0.7441 H   0  0  0  0  0  0
   -2.6860    0.9613    0.7924 H   0  0  0  0  0  0
   -2.5903    0.9288   -0.9597 H   0  0  0  0  0  0
   -0.3881    2.1495   -0.8576 H   0  0  0  0  0  0
   -0.4794    2.1609    0.8957 H   0  0  0  0  0  0
   -0.4953   -0.3552    0.9109 H   0  0  0  0  0  0
   -0.4181   -0.3668   -0.8421 H   0  0  0  0  0  0
    1.8062    0.8152   -0.7478 H   0  0  0  0  0  0
    1.7268    0.8067    1.0060 H   0  0  0  0  0  0
    1.6962   -1.7024    1.0022 H   0  0  0  0  0  0
    1.6779   -1.7067   -0.7522 H   0  0  0  0  0  0
    3.9249   -2.2042   -0.0407 H   0  0  0  0  0  0
    3.9414   -0.6150   -0.7869 H   0  0  0  0  0  0
    4.0023    0.4690    1.4659 H   0  0  0  0  0  0
    3.8433   -1.1006    2.2403 H   0  0  0  0  0  0
    6.0443   -1.8058    1.2496 H   0  0  0  0  0  0
    6.1905   -0.2396    0.4528 H   0  0  0  0  0  0
    6.0154   -0.6240    3.4755 H   0  0  0  0  0  0
    8.3015   -1.2897    3.0275 H   0  0  0  0  0  0
    8.3870   -0.2688    1.5825 H   0  0  0  0  0  0
    8.4196    0.6843    4.4968 H   0  0  0  0  0  0
    9.3906    1.3111    3.1609 H   0  0  0  0  0  0
  1  2  1  0  0  0
  1 18  1  0  0  0
  1 19  1  0  0  0
  1 20  1  0  0  0
  2  3  1  0  0  0
  2 21  1  0  0  0
  2 22  1  0  0  0
  3  4  1  0  0  0
  3 23  1  0  0  0
  3 24  1  0  0  0
  4  5  1  0  0  0
  4 25  1  0  0  0
  4 26  1  0  0  0
  5  6  1  0  0  0
  5 27  1  0  0  0
  5 28  1  0  0  0
  6  7  1  0  0  0
  6 29  1  0  0  0
  6 30  1  0  0  0
  7  8  1  0  0  0
  7 31  1  0  0  0
  7 32  1  0  0  0
  8  9  1  0  0  0
  8 33  1  0  0  0
  8 34  1  0  0  0
  9 10  1  0  0  0
  9 35  1  0  0  0
  9 36  1  0  0  0
 10 11  1  0  0  0
 10 37  1  0  0  0
 10 38  1  0  0  0
 11 12  1  0  0  0
 11 39  1  0  0  0
 11 40  1  0  0  0
 12 17  1  0  0  0
 12 13  1  0  0  0
 12 41  1  0  0  0
 13 14  1  0  0  0
 13 42  1  0  0  0
 13 43  1  0  0  0
 14 15  1  0  0  0
 14 44  1  0  0  0
 14 45  1  0  0  0
 15 16  2  0  0  0
 15 17  1  0  0  0
M  END
>  <i_m_Spin_multiplicity> (1)
1

>  <s_j_Task> (1)
Single Point

>  <s_j_QM_Method> (1)
DFT(b3lyp-d3)

>  <s_j_QM_Basis> (1)
cc-pvtz(-f)

>  <i_j_Number_of_canonical_orbitals> (1)
639

>  <i_j_Geometry_convergence_category> (1)
3

>  <r_j_Gas_Phase_Energy> (1)
-739.238668883284

>  <r_j_Final_Energy> (1)
-739.238668883284

>  <r_j_HOMO> (1)
-0.28066092797386

>  <r_j_LUMO> (1)
-0.00870143111058029

>  <r_j_Polarizability> (1)
186.397442074145

>  <r_j_QM_Dipole_(debye)> (1)
4.45423664331935

>  <r_j_QM_Dipole_X_(debye)> (1)
0.775965895111875

>  <r_j_QM_Dipole_Y_(debye)> (1)
-4.36698053212042

>  <r_j_QM_Dipole_Z_(debye)> (1)
-0.409367849730856

>  <r_j_Lowest_Frequency_(cm-1)> (1)
30.170819250094

>  <r_j_Highest_Frequency_(cm-1)> (1)
3081.94692500128

>  <r_j_2nd_Lowest_Frequency_(cm-1)> (1)
55.9266005226541

>  <i_j_Num_Negative_Frequencies> (1)
0

>  <r_j_Zero_Point_Energy_(kcal/mol)> (1)
257.628440305931

>  <r_j_Entropy_(cal/mol/K)_298.15K_1.00E+00atm> (1)
137.7394534436

>  <r_j_Enthalpy_(kcal/mol)_298.15K_1.00E+00atm> (1)
12.2253595863841

>  <r_j_Free_Energy_(kcal/mol)_298.15K_1.00E+00atm> (1)
-28.8416584578252

>  <r_j_Internal_Energy_(kcal/mol)_298.15K_1.00E+00atm> (1)
11.6328739975568

>  <r_j_Heat_Capacity_(cal/mol/K)_298.15K_1.00E+00atm> (1)
71.3544972980837

>  <r_j_ln(Q)_298.15K_1.00E+00atm> (1)
48.6790885748165

>  <r_j_Total_Internal_Energy_(au)_298.15K_1.00E+00atm> (1)
-738.80957366293

>  <r_j_Total_Enthalpy_(au)_298.15K_1.00E+00atm> (1)
-738.808629477038

>  <r_j_Total_Free_Energy_(au)_298.15K_1.00E+00atm> (1)
-738.874073936457

>  <r_lp_tautomer_probability> (1)
1

>  <r_epik_Ionization_Penalty> (1)
  0.0000

>  <r_epik_Ionization_Penalty_Charging> (1)
  0.0000

>  <r_epik_Ionization_Penalty_Neutral> (1)
  0.0000

>  <r_epik_State_Penalty> (1)
  0.0000

>  <r_epik_Charging_Adjusted_Penalty> (1)
0

>  <i_epik_Tot_Q> (1)
0

>  <i_epik_Tot_abs_Q> (1)
0

>  <s_lp_Force_Field> (1)
S-OPLS

>  <r_lp_Energy> (1)
1.91838

>  <b_lp_Chiralities_Consistent> (1)
1

>  <s_epik_Chemistry_Notes> (1)
This compound has an ester and may undergo hydrolysis at high or low pH.

$$$$
