7794_Citronellal
                    3D
 Schrodinger Suite 2021-3.
 29 28  0  0  1  0            999 V2000
   -0.8474   -1.0358    0.7533 C   0  0  0  0  0  0
   -0.0533    0.0054   -0.0508 C   0  0  0  0  0  0
    1.4613   -0.2690   -0.0330 C   0  0  0  0  0  0
    1.8780   -1.6187   -0.6508 C   0  0  0  0  0  0
    3.3746   -1.7484   -0.7446 C   0  0  0  0  0  0
    4.1888   -2.5096    0.0014 C   0  0  0  0  0  0
    5.6842   -2.4838   -0.2077 C   0  0  0  0  0  0
    3.7316   -3.4424    1.0960 C   0  0  0  0  0  0
   -0.3373    1.4317    0.4787 C   0  0  0  0  0  0
   -1.7739    1.8391    0.2556 C   0  0  0  0  0  0
   -2.5646    2.1114    1.1320 O   0  0  0  0  0  0
   -0.4922   -1.0700    1.7902 H   0  0  0  0  0  0
   -0.7446   -2.0378    0.3279 H   0  0  0  0  0  0
   -1.9149   -0.7957    0.7805 H   0  0  0  0  0  0
   -0.3889   -0.0371   -1.0991 H   0  0  0  0  0  0
    1.9755    0.5379   -0.5726 H   0  0  0  0  0  0
    1.8266   -0.2237    1.0021 H   0  0  0  0  0  0
    1.4486   -2.4412   -0.0725 H   0  0  0  0  0  0
    1.4437   -1.6925   -1.6586 H   0  0  0  0  0  0
    3.8376   -1.1017   -1.4916 H   0  0  0  0  0  0
    6.0642   -3.4833   -0.4577 H   0  0  0  0  0  0
    6.2029   -2.1752    0.7099 H   0  0  0  0  0  0
    5.9764   -1.7992   -1.0091 H   0  0  0  0  0  0
    4.0423   -4.4731    0.8803 H   0  0  0  0  0  0
    2.6503   -3.4411    1.2454 H   0  0  0  0  0  0
    4.2018   -3.1706    2.0501 H   0  0  0  0  0  0
   -0.1143    1.5042    1.5486 H   0  0  0  0  0  0
    0.2998    2.1494   -0.0583 H   0  0  0  0  0  0
   -2.0854    1.8566   -0.8167 H   0  0  0  0  0  0
  1  2  1  0  0  0
  1 12  1  0  0  0
  1 13  1  0  0  0
  1 14  1  0  0  0
  2  3  1  0  0  0
  2  9  1  0  0  0
  2 15  1  0  0  0
  3  4  1  0  0  0
  3 16  1  0  0  0
  3 17  1  0  0  0
  4  5  1  0  0  0
  4 18  1  0  0  0
  4 19  1  0  0  0
  5  6  2  0  0  0
  5 20  1  0  0  0
  6  7  1  0  0  0
  6  8  1  0  0  0
  7 21  1  0  0  0
  7 22  1  0  0  0
  7 23  1  0  0  0
  8 24  1  0  0  0
  8 25  1  0  0  0
  8 26  1  0  0  0
  9 10  1  0  0  0
  9 27  1  0  0  0
  9 28  1  0  0  0
 10 11  2  0  0  0
 10 29  1  0  0  0
M  END
>  <i_m_Spin_multiplicity> (1)
1

>  <s_j_Task> (1)
Single Point

>  <s_j_QM_Method> (1)
DFT(b3lyp-d3)

>  <s_j_QM_Basis> (1)
cc-pvtz(-f)

>  <i_j_Number_of_canonical_orbitals> (1)
411

>  <i_j_Geometry_convergence_category> (1)
0

>  <r_j_Gas_Phase_Energy> (1)
-467.295894914182

>  <r_j_Final_Energy> (1)
-467.295894914182

>  <r_j_HOMO> (1)
-0.248505832728772

>  <r_j_LUMO> (1)
-0.0297386854354312

>  <r_j_Polarizability> (1)
125.931708451905

>  <r_j_QM_Dipole_(debye)> (1)
3.01939184057093

>  <r_j_QM_Dipole_X_(debye)> (1)
2.3780648410818

>  <r_j_QM_Dipole_Y_(debye)> (1)
-1.25082507415333

>  <r_j_QM_Dipole_Z_(debye)> (1)
-1.37730582384096

>  <r_j_Lowest_Frequency_(cm-1)> (1)
58.3165697837859

>  <r_j_Highest_Frequency_(cm-1)> (1)
3078.87932221042

>  <r_j_2nd_Lowest_Frequency_(cm-1)> (1)
70.6582438621041

>  <i_j_Num_Negative_Frequencies> (1)
0

>  <r_j_Zero_Point_Energy_(kcal/mol)> (1)
162.442653146242

>  <r_j_Entropy_(cal/mol/K)_298.15K_1.00E+00atm> (1)
110.513699888855

>  <r_j_Enthalpy_(kcal/mol)_298.15K_1.00E+00atm> (1)
8.72485793899683

>  <r_j_Free_Energy_(kcal/mol)_298.15K_1.00E+00atm> (1)
-24.2248016828654

>  <r_j_Internal_Energy_(kcal/mol)_298.15K_1.00E+00atm> (1)
8.13237235016956

>  <r_j_Heat_Capacity_(cal/mol/K)_298.15K_1.00E+00atm> (1)
48.6057470991606

>  <r_j_ln(Q)_298.15K_1.00E+00atm> (1)
40.8867357108454

>  <r_j_Total_Internal_Energy_(au)_298.15K_1.00E+00atm> (1)
-467.024066306565

>  <r_j_Total_Enthalpy_(au)_298.15K_1.00E+00atm> (1)
-467.023122120673

>  <r_j_Total_Free_Energy_(au)_298.15K_1.00E+00atm> (1)
-467.075630745956

>  <r_lp_tautomer_probability> (1)
1

>  <r_epik_Ionization_Penalty> (1)
  0.0000

>  <r_epik_Ionization_Penalty_Charging> (1)
  0.0000

>  <r_epik_Ionization_Penalty_Neutral> (1)
  0.0000

>  <r_epik_State_Penalty> (1)
  0.0000

>  <r_epik_Charging_Adjusted_Penalty> (1)
0

>  <i_epik_Tot_Q> (1)
0

>  <i_epik_Tot_abs_Q> (1)
0

>  <s_lp_Force_Field> (1)
S-OPLS

>  <r_lp_Energy> (1)
-2.209147

>  <b_lp_Chiralities_Consistent> (1)
1

$$$$
