78173525_Sandaracopimaric acid
                    3D
 Schrodinger Suite 2021-3.
 52 54  0  0  1  0            999 V2000
   -2.5680   -5.5016    3.0825 C   0  0  0  0  0  0
   -2.9234   -4.0891    3.5990 C   0  0  0  0  0  0
   -3.8779   -3.4022    2.5866 C   0  0  0  0  0  0
   -3.9714   -1.8908    2.8247 C   0  0  0  0  0  0
   -2.6043   -1.1801    2.7562 C   0  0  0  0  0  0
   -1.5115   -1.9920    3.4137 C   0  0  0  0  0  0
   -1.6564   -3.2766    3.7555 C   0  0  0  0  0  0
   -0.2379   -1.2115    3.6830 C   0  0  0  0  0  0
    0.0180   -0.1435    2.5906 C   0  0  0  0  0  0
   -0.5894   -0.6479    1.2755 C   0  0  0  0  0  0
   -2.1512   -0.6400    1.3319 C   0  0  0  0  0  0
   -2.6264   -1.5084    0.1419 C   0  0  0  0  0  0
   -2.1139   -0.9826   -1.2125 C   0  0  0  0  0  0
   -0.5899   -0.7931   -1.2387 C   0  0  0  0  0  0
   -0.0633    0.0055   -0.0257 C   0  0  0  0  0  0
    1.4524   -0.0337   -0.0110 C   0  0  0  0  0  0
    2.1238   -1.0361   -0.1418 O   0  0  0  0  0  0
    1.9865    1.1901    0.2135 O   0  0  0  0  0  0
    3.4217    1.2203    0.3103 C   0  0  0  0  0  0
   -2.7437    0.7808    1.2054 C   0  0  0  0  0  0
   -3.6424   -4.2387    4.9340 C   0  0  0  0  0  0
   -3.4080   -3.5535    6.0531 C   0  0  0  0  0  0
   -1.9186   -6.0275    3.7905 H   0  0  0  0  0  0
   -2.0465   -5.4390    2.1218 H   0  0  0  0  0  0
   -3.4723   -6.1045    2.9416 H   0  0  0  0  0  0
   -3.5158   -3.6091    1.5755 H   0  0  0  0  0  0
   -4.8740   -3.8565    2.6593 H   0  0  0  0  0  0
   -4.6812   -1.4342    2.1263 H   0  0  0  0  0  0
   -4.3822   -1.7338    3.8284 H   0  0  0  0  0  0
   -2.6969   -0.2740    3.3726 H   0  0  0  0  0  0
   -0.8258   -3.7910    4.2402 H   0  0  0  0  0  0
   -0.3109   -0.7256    4.6655 H   0  0  0  0  0  0
    0.6103   -1.9027    3.7386 H   0  0  0  0  0  0
   -0.4228    0.8201    2.8706 H   0  0  0  0  0  0
    1.0931    0.0346    2.4942 H   0  0  0  0  0  0
   -0.2891   -1.7031    1.1972 H   0  0  0  0  0  0
   -2.2545   -2.5303    0.2838 H   0  0  0  0  0  0
   -3.7198   -1.5685    0.1148 H   0  0  0  0  0  0
   -2.4030   -1.6825   -2.0054 H   0  0  0  0  0  0
   -2.6093   -0.0355   -1.4559 H   0  0  0  0  0  0
   -0.0938   -1.7705   -1.2205 H   0  0  0  0  0  0
   -0.2856   -0.3046   -2.1718 H   0  0  0  0  0  0
   -0.3720    1.0536   -0.0783 H   0  0  0  0  0  0
    3.6835    2.2612    0.5007 H   0  0  0  0  0  0
    3.8782    0.8713   -0.6195 H   0  0  0  0  0  0
    3.7651    0.5810    1.1282 H   0  0  0  0  0  0
   -2.5717    1.2401    0.2306 H   0  0  0  0  0  0
   -2.3288    1.4551    1.9614 H   0  0  0  0  0  0
   -3.8276    0.7428    1.3601 H   0  0  0  0  0  0
   -4.4418   -4.9827    4.9283 H   0  0  0  0  0  0
   -2.6274   -2.8006    6.1063 H   0  0  0  0  0  0
   -3.9913   -3.7267    6.9528 H   0  0  0  0  0  0
  1  2  1  0  0  0
  1 23  1  0  0  0
  1 24  1  0  0  0
  1 25  1  0  0  0
  2  7  1  0  0  0
  2  3  1  0  0  0
  2 21  1  0  0  0
  3  4  1  0  0  0
  3 26  1  0  0  0
  3 27  1  0  0  0
  4  5  1  0  0  0
  4 28  1  0  0  0
  4 29  1  0  0  0
  5 11  1  0  0  0
  5  6  1  0  0  0
  5 30  1  0  0  0
  6  7  2  0  0  0
  6  8  1  0  0  0
  7 31  1  0  0  0
  8  9  1  0  0  0
  8 32  1  0  0  0
  8 33  1  0  0  0
  9 10  1  0  0  0
  9 34  1  0  0  0
  9 35  1  0  0  0
 10 15  1  0  0  0
 10 11  1  0  0  0
 10 36  1  0  0  0
 11 12  1  0  0  0
 11 20  1  0  0  0
 12 13  1  0  0  0
 12 37  1  0  0  0
 12 38  1  0  0  0
 13 14  1  0  0  0
 13 39  1  0  0  0
 13 40  1  0  0  0
 14 15  1  0  0  0
 14 41  1  0  0  0
 14 42  1  0  0  0
 15 16  1  0  0  0
 15 43  1  0  0  0
 16 17  2  0  0  0
 16 18  1  0  0  0
 18 19  1  0  0  0
 19 44  1  0  0  0
 19 45  1  0  0  0
 19 46  1  0  0  0
 20 47  1  0  0  0
 20 48  1  0  0  0
 20 49  1  0  0  0
 21 22  2  0  0  0
 21 50  1  0  0  0
 22 51  1  0  0  0
 22 52  1  0  0  0
M  END
>  <i_m_Spin_multiplicity> (1)
1

>  <s_j_Task> (1)
Single Point

>  <s_j_QM_Method> (1)
DFT(b3lyp-d3)

>  <s_j_QM_Basis> (1)
cc-pvtz(-f)

>  <i_j_Number_of_canonical_orbitals> (1)
764

>  <i_j_Geometry_convergence_category> (1)
3

>  <r_j_Gas_Phase_Energy> (1)
-930.991595384817

>  <r_j_Final_Energy> (1)
-930.991595384817

>  <r_j_HOMO> (1)
-0.263268206497875

>  <r_j_LUMO> (1)
-0.0347366197531667

>  <r_j_Polarizability> (1)
229.273227739932

>  <r_j_QM_Dipole_(debye)> (1)
1.75966790197987

>  <r_j_QM_Dipole_X_(debye)> (1)
-0.577257307590502

>  <r_j_QM_Dipole_Y_(debye)> (1)
1.66219582177893

>  <r_j_QM_Dipole_Z_(debye)> (1)
0.0176118185395786

>  <r_j_Lowest_Frequency_(cm-1)> (1)
50.0068272839085

>  <r_j_Highest_Frequency_(cm-1)> (1)
3176.03545915666

>  <r_j_2nd_Lowest_Frequency_(cm-1)> (1)
57.5605832053887

>  <i_j_Num_Negative_Frequencies> (1)
0

>  <r_j_Zero_Point_Energy_(kcal/mol)> (1)
291.539729768962

>  <r_j_Entropy_(cal/mol/K)_298.15K_1.00E+00atm> (1)
140.490827461233

>  <r_j_Enthalpy_(kcal/mol)_298.15K_1.00E+00atm> (1)
13.3542914579901

>  <r_j_Free_Energy_(kcal/mol)_298.15K_1.00E+00atm> (1)
-28.5330487495764

>  <r_j_Internal_Energy_(kcal/mol)_298.15K_1.00E+00atm> (1)
12.7618058691628

>  <r_j_Heat_Capacity_(cal/mol/K)_298.15K_1.00E+00atm> (1)
85.362378355429

>  <r_j_ln(Q)_298.15K_1.00E+00atm> (1)
48.1582156387176

>  <r_j_Total_Internal_Energy_(au)_298.15K_1.00E+00atm> (1)
-930.506660017008

>  <r_j_Total_Enthalpy_(au)_298.15K_1.00E+00atm> (1)
-930.505715831115

>  <r_j_Total_Free_Energy_(au)_298.15K_1.00E+00atm> (1)
-930.572467557121

>  <r_lp_tautomer_probability> (1)
1

>  <r_epik_Ionization_Penalty> (1)
  0.0000

>  <r_epik_Ionization_Penalty_Charging> (1)
  0.0000

>  <r_epik_Ionization_Penalty_Neutral> (1)
  0.0000

>  <r_epik_State_Penalty> (1)
  0.0000

>  <r_epik_Charging_Adjusted_Penalty> (1)
0

>  <i_epik_Tot_Q> (1)
0

>  <i_epik_Tot_abs_Q> (1)
0

>  <s_lp_Force_Field> (1)
S-OPLS

>  <r_lp_Energy> (1)
33.115452

>  <b_lp_Chiralities_Consistent> (1)
1

>  <s_epik_Chemistry_Notes> (1)
This compound has an ester and may undergo hydrolysis at high or low pH.

$$$$
