7819_Isobutyl acrylate
                    3D
 Schrodinger Suite 2021-3.
 21 20  0  0  1  0            999 V2000
   -0.5796   -0.7656   -1.2162 C   0  0  0  0  0  0
    0.0347    0.0089   -0.0424 C   0  0  0  0  0  0
   -0.4590    1.4608   -0.0070 C   0  0  0  0  0  0
    1.5558   -0.0589   -0.1280 C   0  0  0  0  0  0
    2.1009    0.5764    1.0493 O   0  0  0  0  0  0
    3.4507    0.6467    1.1110 C   0  0  0  0  0  0
    4.1897    0.2101    0.2506 O   0  0  0  0  0  0
    3.8796    1.3230    2.3624 C   0  0  0  0  0  0
    5.1746    1.4988    2.6302 C   0  0  0  0  0  0
   -0.2925   -0.3161   -2.1744 H   0  0  0  0  0  0
   -1.6724   -0.7517   -1.1589 H   0  0  0  0  0  0
   -0.2562   -1.8119   -1.2253 H   0  0  0  0  0  0
   -0.2603   -0.4830    0.8946 H   0  0  0  0  0  0
   -0.1916    1.9820   -0.9345 H   0  0  0  0  0  0
   -0.0126    2.0068    0.8279 H   0  0  0  0  0  0
   -1.5481    1.5009    0.0967 H   0  0  0  0  0  0
    1.9168   -1.0924   -0.1704 H   0  0  0  0  0  0
    1.9320    0.4576   -1.0194 H   0  0  0  0  0  0
    3.0941    1.6590    3.0322 H   0  0  0  0  0  0
    5.9277    1.1464    1.9317 H   0  0  0  0  0  0
    5.5087    1.9906    3.5379 H   0  0  0  0  0  0
  1  2  1  0  0  0
  1 10  1  0  0  0
  1 11  1  0  0  0
  1 12  1  0  0  0
  2  3  1  0  0  0
  2  4  1  0  0  0
  2 13  1  0  0  0
  3 14  1  0  0  0
  3 15  1  0  0  0
  3 16  1  0  0  0
  4  5  1  0  0  0
  4 17  1  0  0  0
  4 18  1  0  0  0
  5  6  1  0  0  0
  6  7  2  0  0  0
  6  8  1  0  0  0
  8  9  2  0  0  0
  8 19  1  0  0  0
  9 20  1  0  0  0
  9 21  1  0  0  0
M  END
>  <i_m_Spin_multiplicity> (1)
1

>  <s_j_Task> (1)
Single Point

>  <s_j_QM_Method> (1)
DFT(b3lyp-d3)

>  <s_j_QM_Basis> (1)
cc-pvtz(-f)

>  <i_j_Number_of_canonical_orbitals> (1)
313

>  <i_j_Geometry_convergence_category> (1)
0

>  <r_j_Gas_Phase_Energy> (1)
-424.580814553909

>  <r_j_Final_Energy> (1)
-424.580814553909

>  <r_j_HOMO> (1)
-0.283287144547827

>  <r_j_LUMO> (1)
-0.0601546674618638

>  <r_j_Polarizability> (1)
92.2557910229551

>  <r_j_QM_Dipole_(debye)> (1)
1.81833758346982

>  <r_j_QM_Dipole_X_(debye)> (1)
-1.41304247868496

>  <r_j_QM_Dipole_Y_(debye)> (1)
0.464875695073176

>  <r_j_QM_Dipole_Z_(debye)> (1)
1.04573089703851

>  <r_j_Lowest_Frequency_(cm-1)> (1)
78.3675392983249

>  <r_j_Highest_Frequency_(cm-1)> (1)
3198.71139499314

>  <r_j_2nd_Lowest_Frequency_(cm-1)> (1)
87.7950503929748

>  <i_j_Num_Negative_Frequencies> (1)
0

>  <r_j_Zero_Point_Energy_(kcal/mol)> (1)
112.89264354652

>  <r_j_Entropy_(cal/mol/K)_298.15K_1.00E+00atm> (1)
96.0018295818534

>  <r_j_Enthalpy_(kcal/mol)_298.15K_1.00E+00atm> (1)
6.80407998290787

>  <r_j_Free_Energy_(kcal/mol)_298.15K_1.00E+00atm> (1)
-21.8188655069217

>  <r_j_Internal_Energy_(kcal/mol)_298.15K_1.00E+00atm> (1)
6.21159439408059

>  <r_j_Heat_Capacity_(cal/mol/K)_298.15K_1.00E+00atm> (1)
36.5750396969606

>  <r_j_ln(Q)_298.15K_1.00E+00atm> (1)
36.8259851688688

>  <r_j_Total_Internal_Energy_(au)_298.15K_1.00E+00atm> (1)
-424.391009867869

>  <r_j_Total_Enthalpy_(au)_298.15K_1.00E+00atm> (1)
-424.390065681977

>  <r_j_Total_Free_Energy_(au)_298.15K_1.00E+00atm> (1)
-424.435679249354

>  <r_lp_tautomer_probability> (1)
1

>  <r_epik_Ionization_Penalty> (1)
  0.0000

>  <r_epik_Ionization_Penalty_Charging> (1)
  0.0000

>  <r_epik_Ionization_Penalty_Neutral> (1)
  0.0000

>  <r_epik_State_Penalty> (1)
  0.0000

>  <r_epik_Charging_Adjusted_Penalty> (1)
0

>  <i_epik_Tot_Q> (1)
0

>  <i_epik_Tot_abs_Q> (1)
0

>  <s_lp_Force_Field> (1)
S-OPLS

>  <r_lp_Energy> (1)
3.353833

>  <b_lp_Chiralities_Consistent> (1)
1

>  <s_epik_Chemistry_Notes> (1)
This compound has an ester and may undergo hydrolysis at high or low pH.

$$$$
