7840_1-Bromopropane
                    3D
 Schrodinger Suite 2021-3.
 11 10  0  0  1  0            999 V2000
   -0.0278    0.0531    0.0000 C   0  0  0  0  0  0
    1.5068    0.0366    0.0000 C   0  0  0  0  0  0
    2.0400   -1.3880    0.0000 C   0  0  0  0  0  0
    4.0306   -1.4231    0.0000 Br  0  0  0  0  0  0
   -0.3998    1.0822    0.0000 H   0  0  0  0  0  0
   -0.4334   -0.4485    0.8853 H   0  0  0  0  0  0
   -0.4334   -0.4484   -0.8854 H   0  0  0  0  0  0
    1.8902    0.5649   -0.8792 H   0  0  0  0  0  0
    1.8902    0.5649    0.8792 H   0  0  0  0  0  0
    1.7391   -1.9436    0.8897 H   0  0  0  0  0  0
    1.7391   -1.9436   -0.8897 H   0  0  0  0  0  0
  1  2  1  0  0  0
  1  5  1  0  0  0
  1  6  1  0  0  0
  1  7  1  0  0  0
  2  3  1  0  0  0
  2  8  1  0  0  0
  2  9  1  0  0  0
  3  4  1  0  0  0
  3 10  1  0  0  0
  3 11  1  0  0  0
M  END
>  <i_m_Spin_multiplicity> (1)
1

>  <s_j_Task> (1)
Single Point

>  <s_j_QM_Method> (1)
DFT(b3lyp-d3)

>  <s_j_QM_Basis> (1)
cc-pvtz(-f)

>  <i_j_Number_of_canonical_orbitals> (1)
168

>  <i_j_Geometry_convergence_category> (1)
0

>  <r_j_Gas_Phase_Energy> (1)
-2692.82239774615

>  <r_j_Final_Energy> (1)
-2692.82239774615

>  <r_j_HOMO> (1)
-0.28405467606909

>  <r_j_LUMO> (1)
-0.0228956353622555

>  <r_j_Polarizability> (1)
57.1392183145377

>  <r_j_QM_Dipole_(debye)> (1)
2.33739900642032

>  <r_j_QM_Dipole_X_(debye)> (1)
-2.30625411851968

>  <r_j_QM_Dipole_Y_(debye)> (1)
0.380297313815213

>  <r_j_QM_Dipole_Z_(debye)> (1)
-9.55543898861204e-05

>  <r_j_Lowest_Frequency_(cm-1)> (1)
-823.232866934135

>  <r_j_Highest_Frequency_(cm-1)> (1)
3099.71929528677

>  <r_j_2nd_Lowest_Frequency_(cm-1)> (1)
278.365208136798

>  <i_j_Num_Negative_Frequencies> (1)
1

>  <r_j_Zero_Point_Energy_(kcal/mol)> (1)
59.0279119047873

>  <r_j_Entropy_(cal/mol/K)_298.15K_1.00E+00atm> (1)
71.7764726546037

>  <r_j_Enthalpy_(kcal/mol)_298.15K_1.00E+00atm> (1)
3.45332470479266

>  <r_j_Free_Energy_(kcal/mol)_298.15K_1.00E+00atm> (1)
-17.9468306171774

>  <r_j_Internal_Energy_(kcal/mol)_298.15K_1.00E+00atm> (1)
2.86083911596538

>  <r_j_Heat_Capacity_(cal/mol/K)_298.15K_1.00E+00atm> (1)
15.5263584138785

>  <r_j_ln(Q)_298.15K_1.00E+00atm> (1)
30.29074623182

>  <r_j_Total_Internal_Energy_(au)_298.15K_1.00E+00atm> (1)
-2692.72377174291

>  <r_j_Total_Enthalpy_(au)_298.15K_1.00E+00atm> (1)
-2692.72282755702

>  <r_j_Total_Free_Energy_(au)_298.15K_1.00E+00atm> (1)
-2692.75693087552

>  <r_lp_tautomer_probability> (1)
1

>  <r_epik_Ionization_Penalty> (1)
  0.0000

>  <r_epik_Ionization_Penalty_Charging> (1)
  0.0000

>  <r_epik_Ionization_Penalty_Neutral> (1)
  0.0000

>  <r_epik_State_Penalty> (1)
  0.0000

>  <r_epik_Charging_Adjusted_Penalty> (1)
0

>  <i_epik_Tot_Q> (1)
0

>  <i_epik_Tot_abs_Q> (1)
0

>  <s_lp_Force_Field> (1)
S-OPLS

>  <r_lp_Energy> (1)
0.667191

>  <b_lp_Chiralities_Consistent> (1)
1

$$$$
