7844_1-butene
                    3D
 Schrodinger Suite 2021-3.
 12 11  0  0  1  0            999 V2000
   -0.0744    0.0786    0.1393 C   0  0  0  0  0  0
    1.4366   -0.0464   -0.1202 C   0  0  0  0  0  0
    1.9004   -1.4772   -0.1218 C   0  0  0  0  0  0
    2.4702   -2.1044   -1.1506 C   0  0  0  0  0  0
   -0.3847    1.1280    0.1698 H   0  0  0  0  0  0
   -0.3490   -0.3797    1.0960 H   0  0  0  0  0  0
   -0.6468   -0.4250   -0.6462 H   0  0  0  0  0  0
    1.6927    0.4278   -1.0754 H   0  0  0  0  0  0
    1.9769    0.5088    0.6601 H   0  0  0  0  0  0
    1.7288   -2.0275    0.8052 H   0  0  0  0  0  0
    2.6554   -1.5965   -2.0945 H   0  0  0  0  0  0
    2.7742   -3.1454   -1.0908 H   0  0  0  0  0  0
  1  2  1  0  0  0
  1  5  1  0  0  0
  1  6  1  0  0  0
  1  7  1  0  0  0
  2  3  1  0  0  0
  2  8  1  0  0  0
  2  9  1  0  0  0
  3  4  2  0  0  0
  3 10  1  0  0  0
  4 11  1  0  0  0
  4 12  1  0  0  0
M  END
>  <i_m_Spin_multiplicity> (1)
1

>  <s_j_Task> (1)
Single Point

>  <s_j_QM_Method> (1)
DFT(b3lyp-d3)

>  <s_j_QM_Basis> (1)
cc-pvtz(-f)

>  <i_j_Number_of_canonical_orbitals> (1)
164

>  <i_j_Geometry_convergence_category> (1)
3

>  <r_j_Gas_Phase_Energy> (1)
-157.28509044536

>  <r_j_Final_Energy> (1)
-157.28509044536

>  <r_j_HOMO> (1)
-0.265718903104127

>  <r_j_LUMO> (1)
0.00175569875207221

>  <r_j_Polarizability> (1)
49.8968409955998

>  <r_j_QM_Dipole_(debye)> (1)
0.386706393580154

>  <r_j_QM_Dipole_X_(debye)> (1)
-0.166584870874153

>  <r_j_QM_Dipole_Y_(debye)> (1)
0.296809838415582

>  <r_j_QM_Dipole_Z_(debye)> (1)
0.18356261997293

>  <r_j_Lowest_Frequency_(cm-1)> (1)
149.10937907613

>  <r_j_Highest_Frequency_(cm-1)> (1)
3167.04980012761

>  <r_j_2nd_Lowest_Frequency_(cm-1)> (1)
297.287213227791

>  <i_j_Num_Negative_Frequencies> (1)
0

>  <r_j_Zero_Point_Energy_(kcal/mol)> (1)
67.8064674229109

>  <r_j_Entropy_(cal/mol/K)_298.15K_1.00E+00atm> (1)
69.6322199049177

>  <r_j_Enthalpy_(kcal/mol)_298.15K_1.00E+00atm> (1)
3.74697422688874

>  <r_j_Free_Energy_(kcal/mol)_298.15K_1.00E+00atm> (1)
-17.0138721377625

>  <r_j_Internal_Energy_(kcal/mol)_298.15K_1.00E+00atm> (1)
3.15448863806146

>  <r_j_Heat_Capacity_(cal/mol/K)_298.15K_1.00E+00atm> (1)
17.3247023535275

>  <r_j_ln(Q)_298.15K_1.00E+00atm> (1)
28.7160944647423

>  <r_j_Total_Internal_Energy_(au)_298.15K_1.00E+00atm> (1)
-157.172006963033

>  <r_j_Total_Enthalpy_(au)_298.15K_1.00E+00atm> (1)
-157.17106277714

>  <r_j_Total_Free_Energy_(au)_298.15K_1.00E+00atm> (1)
-157.204147291968

>  <r_lp_tautomer_probability> (1)
1

>  <r_epik_Ionization_Penalty> (1)
  0.0000

>  <r_epik_Ionization_Penalty_Charging> (1)
  0.0000

>  <r_epik_Ionization_Penalty_Neutral> (1)
  0.0000

>  <r_epik_State_Penalty> (1)
  0.0000

>  <r_epik_Charging_Adjusted_Penalty> (1)
0

>  <i_epik_Tot_Q> (1)
0

>  <i_epik_Tot_abs_Q> (1)
0

>  <s_lp_Force_Field> (1)
S-OPLS

>  <r_lp_Energy> (1)
-0.961624

>  <b_lp_Chiralities_Consistent> (1)
1

$$$$
