7847_Acrolein
                    3D
 Schrodinger Suite 2021-3.
  8  7  0  0  1  0            999 V2000
   -0.6889    1.1466    0.0000 C   0  0  0  0  0  0
   -0.0008   -0.0006    0.0000 C   0  0  0  0  0  0
    1.4748   -0.0117    0.0000 C   0  0  0  0  0  0
    2.1469   -1.0247    0.0000 O   0  0  0  0  0  0
   -0.1788    2.1077    0.0000 H   0  0  0  0  0  0
   -1.7738    1.1710    0.0000 H   0  0  0  0  0  0
   -0.4882   -0.9725    0.0000 H   0  0  0  0  0  0
    1.9481    0.9976    0.0000 H   0  0  0  0  0  0
  1  2  2  0  0  0
  1  5  1  0  0  0
  1  6  1  0  0  0
  2  3  1  0  0  0
  2  7  1  0  0  0
  3  4  2  0  0  0
  3  8  1  0  0  0
M  END
>  <i_m_Spin_multiplicity> (1)
1

>  <s_j_Task> (1)
Single Point

>  <s_j_QM_Method> (1)
DFT(b3lyp-d3)

>  <s_j_QM_Basis> (1)
cc-pvtz(-f)

>  <i_j_Number_of_canonical_orbitals> (1)
128

>  <i_j_Geometry_convergence_category> (1)
0

>  <r_j_Gas_Phase_Energy> (1)
-191.986162083194

>  <r_j_Final_Energy> (1)
-191.986162083194

>  <r_j_HOMO> (1)
-0.268029195042069

>  <r_j_LUMO> (1)
-0.0762677372680655

>  <r_j_Polarizability> (1)
39.1902941018545

>  <r_j_QM_Dipole_(debye)> (1)
3.25680728156884

>  <r_j_QM_Dipole_X_(debye)> (1)
-2.33149044805025

>  <r_j_QM_Dipole_Y_(debye)> (1)
2.27397140701593

>  <r_j_QM_Dipole_Z_(debye)> (1)
-2.07228116162016e-06

>  <r_j_Lowest_Frequency_(cm-1)> (1)
208.952804727401

>  <r_j_Highest_Frequency_(cm-1)> (1)
3183.50221985822

>  <r_j_2nd_Lowest_Frequency_(cm-1)> (1)
351.929058912203

>  <i_j_Num_Negative_Frequencies> (1)
0

>  <r_j_Zero_Point_Energy_(kcal/mol)> (1)
38.2664151978845

>  <r_j_Entropy_(cal/mol/K)_298.15K_1.00E+00atm> (1)
65.9319302443737

>  <r_j_Enthalpy_(kcal/mol)_298.15K_1.00E+00atm> (1)
3.25822476703432

>  <r_j_Free_Energy_(kcal/mol)_298.15K_1.00E+00atm> (1)
-16.3993802353257

>  <r_j_Internal_Energy_(kcal/mol)_298.15K_1.00E+00atm> (1)
2.66573917820705

>  <r_j_Heat_Capacity_(cal/mol/K)_298.15K_1.00E+00atm> (1)
13.5296670855711

>  <r_j_ln(Q)_298.15K_1.00E+00atm> (1)
27.6789521037727

>  <r_j_Total_Internal_Energy_(au)_298.15K_1.00E+00atm> (1)
-191.920932542712

>  <r_j_Total_Enthalpy_(au)_298.15K_1.00E+00atm> (1)
-191.91998835682

>  <r_j_Total_Free_Energy_(au)_298.15K_1.00E+00atm> (1)
-191.951314744615

>  <r_lp_tautomer_probability> (1)
1

>  <r_epik_Ionization_Penalty> (1)
  0.0000

>  <r_epik_Ionization_Penalty_Charging> (1)
  0.0000

>  <r_epik_Ionization_Penalty_Neutral> (1)
  0.0000

>  <r_epik_State_Penalty> (1)
  0.0000

>  <r_epik_Charging_Adjusted_Penalty> (1)
0

>  <i_epik_Tot_Q> (1)
0

>  <i_epik_Tot_abs_Q> (1)
0

>  <s_lp_Force_Field> (1)
S-OPLS

>  <r_lp_Energy> (1)
-0.210256

>  <b_lp_Chiralities_Consistent> (1)
1

$$$$
