7854_Propanenitrile
                    3D
 Schrodinger Suite 2021-3.
  9  8  0  0  1  0            999 V2000
   -0.0238    0.0007    0.0000 C   0  0  0  0  0  0
    1.5156   -0.0281    0.0000 C   0  0  0  0  0  0
    2.0505   -1.3933    0.0000 C   0  0  0  0  0  0
    2.4566   -2.4806    0.0000 N   0  0  0  0  0  0
   -0.3740    1.0363    0.0000 H   0  0  0  0  0  0
   -0.4228   -0.5001    0.8856 H   0  0  0  0  0  0
   -0.4228   -0.5002   -0.8856 H   0  0  0  0  0  0
    1.9103    0.4935   -0.8795 H   0  0  0  0  0  0
    1.9103    0.4935    0.8795 H   0  0  0  0  0  0
  1  2  1  0  0  0
  1  5  1  0  0  0
  1  6  1  0  0  0
  1  7  1  0  0  0
  2  3  1  0  0  0
  2  8  1  0  0  0
  2  9  1  0  0  0
  3  4  3  0  0  0
M  END
>  <i_m_Spin_multiplicity> (1)
1

>  <s_j_Task> (1)
Single Point

>  <s_j_QM_Method> (1)
DFT(b3lyp-d3)

>  <s_j_QM_Basis> (1)
cc-pvtz(-f)

>  <i_j_Number_of_canonical_orbitals> (1)
137

>  <i_j_Geometry_convergence_category> (1)
0

>  <r_j_Gas_Phase_Energy> (1)
-172.132582753017

>  <r_j_Final_Energy> (1)
-172.132582753017

>  <r_j_HOMO> (1)
-0.337611239641216

>  <r_j_LUMO> (1)
0.00415104021893518

>  <r_j_Polarizability> (1)
39.0379167540901

>  <r_j_QM_Dipole_(debye)> (1)
4.05356744123219

>  <r_j_QM_Dipole_X_(debye)> (1)
-1.66242324938857

>  <r_j_QM_Dipole_Y_(debye)> (1)
3.69699309432379

>  <r_j_QM_Dipole_Z_(debye)> (1)
3.2128663369334e-05

>  <r_j_Lowest_Frequency_(cm-1)> (1)
248.725008481992

>  <r_j_Highest_Frequency_(cm-1)> (1)
3082.67955539653

>  <r_j_2nd_Lowest_Frequency_(cm-1)> (1)
292.123057720406

>  <i_j_Num_Negative_Frequencies> (1)
0

>  <r_j_Zero_Point_Energy_(kcal/mol)> (1)
46.4769556843401

>  <r_j_Entropy_(cal/mol/K)_298.15K_1.00E+00atm> (1)
67.0623444223502

>  <r_j_Enthalpy_(kcal/mol)_298.15K_1.00E+00atm> (1)
3.39914764753845

>  <r_j_Free_Energy_(kcal/mol)_298.15K_1.00E+00atm> (1)
-16.5954903419853

>  <r_j_Internal_Energy_(kcal/mol)_298.15K_1.00E+00atm> (1)
2.80666205871118

>  <r_j_Heat_Capacity_(cal/mol/K)_298.15K_1.00E+00atm> (1)
14.6328453602232

>  <r_j_ln(Q)_298.15K_1.00E+00atm> (1)
28.0099476762519

>  <r_j_Total_Internal_Energy_(au)_298.15K_1.00E+00atm> (1)
-172.054044308421

>  <r_j_Total_Enthalpy_(au)_298.15K_1.00E+00atm> (1)
-172.053100122529

>  <r_j_Total_Free_Energy_(au)_298.15K_1.00E+00atm> (1)
-172.08496360658

>  <r_lp_tautomer_probability> (1)
1

>  <r_epik_Ionization_Penalty> (1)
  0.0000

>  <r_epik_Ionization_Penalty_Charging> (1)
  0.0000

>  <r_epik_Ionization_Penalty_Neutral> (1)
  0.0000

>  <r_epik_State_Penalty> (1)
  0.0000

>  <r_epik_Charging_Adjusted_Penalty> (1)
0

>  <i_epik_Tot_Q> (1)
0

>  <i_epik_Tot_abs_Q> (1)
0

>  <s_lp_Force_Field> (1)
S-OPLS

>  <r_lp_Energy> (1)
0.094048

>  <b_lp_Chiralities_Consistent> (1)
1

$$$$
