7858_Allyl alcohol
                    3D
 Schrodinger Suite 2021-3.
 10  9  0  0  1  0            999 V2000
   -0.6974    1.1183    0.1806 C   0  0  0  0  0  0
    0.0473    0.0837   -0.2027 C   0  0  0  0  0  0
    1.5150   -0.0707    0.0719 C   0  0  0  0  0  0
    2.0000    1.0462    0.8000 O   0  0  0  0  0  0
   -0.2652    1.9428    0.7369 H   0  0  0  0  0  0
   -1.7567    1.1668   -0.0521 H   0  0  0  0  0  0
   -0.3966   -0.7400   -0.7614 H   0  0  0  0  0  0
    1.6742   -1.0144    0.6252 H   0  0  0  0  0  0
    2.0450   -0.1868   -0.8913 H   0  0  0  0  0  0
    2.9420    0.9120    0.9581 H   0  0  0  0  0  0
  1  2  2  0  0  0
  1  5  1  0  0  0
  1  6  1  0  0  0
  2  3  1  0  0  0
  2  7  1  0  0  0
  3  4  1  0  0  0
  3  8  1  0  0  0
  3  9  1  0  0  0
  4 10  1  0  0  0
M  END
>  <i_m_Spin_multiplicity> (1)
1

>  <s_j_Task> (1)
Single Point

>  <s_j_QM_Method> (1)
DFT(b3lyp-d3)

>  <s_j_QM_Basis> (1)
cc-pvtz(-f)

>  <i_j_Number_of_canonical_orbitals> (1)
146

>  <i_j_Geometry_convergence_category> (1)
0

>  <r_j_Gas_Phase_Energy> (1)
-193.194879079625

>  <r_j_Final_Energy> (1)
-193.194879079625

>  <r_j_HOMO> (1)
-0.253822440316383

>  <r_j_LUMO> (1)
0.0146914024832878

>  <r_j_Polarizability> (1)
40.7983672680282

>  <r_j_QM_Dipole_(debye)> (1)
1.80348961770226

>  <r_j_QM_Dipole_X_(debye)> (1)
1.26207585597055

>  <r_j_QM_Dipole_Y_(debye)> (1)
-1.23575100449676

>  <r_j_QM_Dipole_Z_(debye)> (1)
-0.364223543749305

>  <r_j_Lowest_Frequency_(cm-1)> (1)
222.955929856424

>  <r_j_Highest_Frequency_(cm-1)> (1)
3787.61479827401

>  <r_j_2nd_Lowest_Frequency_(cm-1)> (1)
305.080263060852

>  <i_j_Num_Negative_Frequencies> (1)
0

>  <r_j_Zero_Point_Energy_(kcal/mol)> (1)
53.1162793108908

>  <r_j_Entropy_(cal/mol/K)_298.15K_1.00E+00atm> (1)
68.2941847435602

>  <r_j_Enthalpy_(kcal/mol)_298.15K_1.00E+00atm> (1)
3.56849948729695

>  <r_j_Free_Energy_(kcal/mol)_298.15K_1.00E+00atm> (1)
-16.7934116939955

>  <r_j_Internal_Energy_(kcal/mol)_298.15K_1.00E+00atm> (1)
2.97601389846967

>  <r_j_Heat_Capacity_(cal/mol/K)_298.15K_1.00E+00atm> (1)
16.0370447670499

>  <r_j_ln(Q)_298.15K_1.00E+00atm> (1)
28.3440002772646

>  <r_j_Total_Internal_Energy_(au)_298.15K_1.00E+00atm> (1)
-193.105490319947

>  <r_j_Total_Enthalpy_(au)_298.15K_1.00E+00atm> (1)
-193.104546134055

>  <r_j_Total_Free_Energy_(au)_298.15K_1.00E+00atm> (1)
-193.136994905196

>  <r_lp_tautomer_probability> (1)
1

>  <r_epik_Ionization_Penalty> (1)
  0.0000

>  <r_epik_Ionization_Penalty_Charging> (1)
  0.0000

>  <r_epik_Ionization_Penalty_Neutral> (1)
  0.0000

>  <r_epik_State_Penalty> (1)
  0.0000

>  <r_epik_Charging_Adjusted_Penalty> (1)
0

>  <i_epik_Tot_Q> (1)
0

>  <i_epik_Tot_abs_Q> (1)
0

>  <s_lp_Force_Field> (1)
S-OPLS

>  <r_lp_Energy> (1)
0.887792

>  <b_lp_Chiralities_Consistent> (1)
1

$$$$
