785_Hydroquinone
                    3D
 Schrodinger Suite 2021-3.
 14 14  0  0  1  0            999 V2000
   -2.0846    1.1831    0.0000 C   0  0  0  0  0  0
   -0.6951    1.1831    0.0000 C   0  0  0  0  0  0
    0.0109   -0.0250    0.0000 C   0  0  0  0  0  0
   -0.6915   -1.2309    0.0000 C   0  0  0  0  0  0
   -2.0882   -1.2309    0.0000 C   0  0  0  0  0  0
   -2.7906   -0.0250    0.0000 C   0  0  0  0  0  0
   -4.1611    0.0455    0.0000 O   0  0  0  0  0  0
    1.3815    0.0455    0.0000 O   0  0  0  0  0  0
   -2.6417    2.1140    0.0000 H   0  0  0  0  0  0
   -0.1380    2.1140    0.0000 H   0  0  0  0  0  0
   -0.1526   -2.1759    0.0000 H   0  0  0  0  0  0
   -2.6271   -2.1759    0.0000 H   0  0  0  0  0  0
   -4.5237   -0.8496    0.0000 H   0  0  0  0  0  0
    1.7440   -0.8497    0.0000 H   0  0  0  0  0  0
  1  6  1  0  0  0
  1  2  2  0  0  0
  1  9  1  0  0  0
  2  3  1  0  0  0
  2 10  1  0  0  0
  3  4  2  0  0  0
  3  8  1  0  0  0
  4  5  1  0  0  0
  4 11  1  0  0  0
  5  6  2  0  0  0
  5 12  1  0  0  0
  6  7  1  0  0  0
  7 13  1  0  0  0
  8 14  1  0  0  0
M  END
>  <i_m_Spin_multiplicity> (1)
1

>  <s_j_Task> (1)
Single Point

>  <s_j_QM_Method> (1)
DFT(b3lyp-d3)

>  <s_j_QM_Basis> (1)
cc-pvtz(-f)

>  <i_j_Number_of_canonical_orbitals> (1)
234

>  <i_j_Geometry_convergence_category> (1)
0

>  <r_j_Gas_Phase_Energy> (1)
-382.829284940304

>  <r_j_Final_Energy> (1)
-382.829284940304

>  <r_j_HOMO> (1)
-0.209991176303684

>  <r_j_LUMO> (1)
-0.0188171306150691

>  <r_j_Polarizability> (1)
73.2029693884509

>  <r_j_QM_Dipole_(debye)> (1)
2.54141008679726

>  <r_j_QM_Dipole_X_(debye)> (1)
-0.000768078560984421

>  <r_j_QM_Dipole_Y_(debye)> (1)
-2.54140997072999

>  <r_j_QM_Dipole_Z_(debye)> (1)
2.09629462137052e-06

>  <r_j_Lowest_Frequency_(cm-1)> (1)
154.875542897037

>  <r_j_Highest_Frequency_(cm-1)> (1)
3775.35266825496

>  <r_j_2nd_Lowest_Frequency_(cm-1)> (1)
347.766338247476

>  <i_j_Num_Negative_Frequencies> (1)
0

>  <r_j_Zero_Point_Energy_(kcal/mol)> (1)
67.9182385989416

>  <r_j_Entropy_(cal/mol/K)_298.15K_1.00E+00atm> (1)
78.4712470505671

>  <r_j_Enthalpy_(kcal/mol)_298.15K_1.00E+00atm> (1)
4.73257404185848

>  <r_j_Free_Energy_(kcal/mol)_298.15K_1.00E+00atm> (1)
-18.6636282662681

>  <r_j_Internal_Energy_(kcal/mol)_298.15K_1.00E+00atm> (1)
4.14008845303121

>  <r_j_Heat_Capacity_(cal/mol/K)_298.15K_1.00E+00atm> (1)
26.2970633507316

>  <r_j_ln(Q)_298.15K_1.00E+00atm> (1)
31.5005607194761

>  <r_j_Total_Internal_Energy_(au)_298.15K_1.00E+00atm> (1)
-382.714452685977

>  <r_j_Total_Enthalpy_(au)_298.15K_1.00E+00atm> (1)
-382.713508500085

>  <r_j_Total_Free_Energy_(au)_298.15K_1.00E+00atm> (1)
-382.75079272196

>  <r_lp_tautomer_probability> (1)
1

>  <r_epik_Ionization_Penalty> (1)
  0.0007

>  <r_epik_Ionization_Penalty_Charging> (1)
  0.0000

>  <r_epik_Ionization_Penalty_Neutral> (1)
  0.0007

>  <r_epik_State_Penalty> (1)
  0.0005

>  <r_epik_Charging_Adjusted_Penalty> (1)
0.000450266

>  <i_epik_Tot_Q> (1)
0

>  <i_epik_Tot_abs_Q> (1)
0

>  <s_lp_Force_Field> (1)
S-OPLS

>  <r_lp_Energy> (1)
5.0668

>  <b_lp_Chiralities_Consistent> (1)
1

$$$$
