7864_Chloromethyl methyl ether
                    3D
 Schrodinger Suite 2021-3.
  9  8  0  0  1  0            999 V2000
   -0.0025   -0.0226    0.0000 C   0  0  0  0  0  0
    1.4176    0.0197    0.0000 O   0  0  0  0  0  0
    1.9707   -1.2595    0.0000 C   0  0  0  0  0  0
    3.7636   -1.1020    0.0000 Cl  0  0  0  0  0  0
   -0.3442    1.0136    0.0000 H   0  0  0  0  0  0
   -0.3957   -0.5307    0.8938 H   0  0  0  0  0  0
   -0.3957   -0.5307   -0.8938 H   0  0  0  0  0  0
    1.7004   -1.8306    0.8991 H   0  0  0  0  0  0
    1.7004   -1.8306   -0.8990 H   0  0  0  0  0  0
  1  2  1  0  0  0
  1  5  1  0  0  0
  1  6  1  0  0  0
  1  7  1  0  0  0
  2  3  1  0  0  0
  3  4  1  0  0  0
  3  8  1  0  0  0
  3  9  1  0  0  0
M  END
>  <i_m_Spin_multiplicity> (1)
1

>  <s_j_Task> (1)
Single Point

>  <s_j_QM_Method> (1)
DFT(b3lyp-d3)

>  <s_j_QM_Basis> (1)
cc-pvtz(-f)

>  <i_j_Number_of_canonical_orbitals> (1)
141

>  <i_j_Geometry_convergence_category> (1)
0

>  <r_j_Gas_Phase_Energy> (1)
-614.719590214417

>  <r_j_Final_Energy> (1)
-614.719590214417

>  <r_j_HOMO> (1)
-0.286099602512764

>  <r_j_LUMO> (1)
0.00150843910270404

>  <r_j_Polarizability> (1)
42.448700792196

>  <r_j_QM_Dipole_(debye)> (1)
2.93293214918817

>  <r_j_QM_Dipole_X_(debye)> (1)
-2.7847206820131

>  <r_j_QM_Dipole_Y_(debye)> (1)
-0.920555111395626

>  <r_j_QM_Dipole_Z_(debye)> (1)
-4.23489018955284e-05

>  <r_j_Lowest_Frequency_(cm-1)> (1)
87.3978520099564

>  <r_j_Highest_Frequency_(cm-1)> (1)
3086.03152449572

>  <r_j_2nd_Lowest_Frequency_(cm-1)> (1)
273.473537134833

>  <i_j_Num_Negative_Frequencies> (1)
0

>  <r_j_Zero_Point_Energy_(kcal/mol)> (1)
44.2738200893291

>  <r_j_Entropy_(cal/mol/K)_298.15K_1.00E+00atm> (1)
72.1044016237423

>  <r_j_Enthalpy_(kcal/mol)_298.15K_1.00E+00atm> (1)
3.75529779240199

>  <r_j_Free_Energy_(kcal/mol)_298.15K_1.00E+00atm> (1)
-17.7426295517168

>  <r_j_Internal_Energy_(kcal/mol)_298.15K_1.00E+00atm> (1)
3.16281220357472

>  <r_j_Heat_Capacity_(cal/mol/K)_298.15K_1.00E+00atm> (1)
15.5260422000742

>  <r_j_ln(Q)_298.15K_1.00E+00atm> (1)
29.9460947005231

>  <r_j_Total_Internal_Energy_(au)_298.15K_1.00E+00atm> (1)
-614.643995128509

>  <r_j_Total_Enthalpy_(au)_298.15K_1.00E+00atm> (1)
-614.643050942616

>  <r_j_Total_Free_Energy_(au)_298.15K_1.00E+00atm> (1)
-614.67731007076

>  <r_lp_tautomer_probability> (1)
1

>  <r_epik_Ionization_Penalty> (1)
  0.0000

>  <r_epik_Ionization_Penalty_Charging> (1)
  0.0000

>  <r_epik_Ionization_Penalty_Neutral> (1)
  0.0000

>  <r_epik_State_Penalty> (1)
  0.0000

>  <r_epik_Charging_Adjusted_Penalty> (1)
0

>  <i_epik_Tot_Q> (1)
0

>  <i_epik_Tot_abs_Q> (1)
0

>  <s_lp_Force_Field> (1)
S-OPLS

>  <r_lp_Energy> (1)
6.24473

>  <b_lp_Chiralities_Consistent> (1)
1

$$$$
