7865_Methyl formate
                    3D
 Schrodinger Suite 2021-3.
  8  7  0  0  1  0            999 V2000
   -0.0497   -0.0131    0.0000 C   0  0  0  0  0  0
    1.3889   -0.1096    0.0000 O   0  0  0  0  0  0
    1.8741   -1.3620    0.0000 C   0  0  0  0  0  0
    1.2154   -2.3732    0.0000 O   0  0  0  0  0  0
   -0.2745    1.0529    0.0000 H   0  0  0  0  0  0
   -0.4660   -0.4950    0.8885 H   0  0  0  0  0  0
   -0.4660   -0.4950   -0.8886 H   0  0  0  0  0  0
    2.9747   -1.3201    0.0000 H   0  0  0  0  0  0
  1  2  1  0  0  0
  1  5  1  0  0  0
  1  6  1  0  0  0
  1  7  1  0  0  0
  2  3  1  0  0  0
  3  4  2  0  0  0
  3  8  1  0  0  0
M  END
>  <i_m_Spin_multiplicity> (1)
1

>  <s_j_Task> (1)
Single Point

>  <s_j_QM_Method> (1)
DFT(b3lyp-d3)

>  <s_j_QM_Basis> (1)
cc-pvtz(-f)

>  <i_j_Number_of_canonical_orbitals> (1)
128

>  <i_j_Geometry_convergence_category> (1)
0

>  <r_j_Gas_Phase_Energy> (1)
-229.153018526922

>  <r_j_Final_Energy> (1)
-229.153018526922

>  <r_j_HOMO> (1)
-0.302283471766739

>  <r_j_LUMO> (1)
-0.0166270353451708

>  <r_j_Polarizability> (1)
31.0438777784032

>  <r_j_QM_Dipole_(debye)> (1)
1.88224622099715

>  <r_j_QM_Dipole_X_(debye)> (1)
-0.232124852264276

>  <r_j_QM_Dipole_Y_(debye)> (1)
1.86787817826127

>  <r_j_QM_Dipole_Z_(debye)> (1)
2.4386483198084e-05

>  <r_j_Lowest_Frequency_(cm-1)> (1)
232.931334605017

>  <r_j_Highest_Frequency_(cm-1)> (1)
3115.58127489613

>  <r_j_2nd_Lowest_Frequency_(cm-1)> (1)
315.625814425403

>  <i_j_Num_Negative_Frequencies> (1)
0

>  <r_j_Zero_Point_Energy_(kcal/mol)> (1)
38.7447927799041

>  <r_j_Entropy_(cal/mol/K)_298.15K_1.00E+00atm> (1)
66.7021117294327

>  <r_j_Enthalpy_(kcal/mol)_298.15K_1.00E+00atm> (1)
3.30701488733744

>  <r_j_Free_Energy_(kcal/mol)_298.15K_1.00E+00atm> (1)
-16.5802197247929

>  <r_j_Internal_Energy_(kcal/mol)_298.15K_1.00E+00atm> (1)
2.71452929851017

>  <r_j_Heat_Capacity_(cal/mol/K)_298.15K_1.00E+00atm> (1)
13.3951529526268

>  <r_j_ln(Q)_298.15K_1.00E+00atm> (1)
27.9841738557906

>  <r_j_Total_Internal_Energy_(au)_298.15K_1.00E+00atm> (1)
-229.086948891227

>  <r_j_Total_Enthalpy_(au)_298.15K_1.00E+00atm> (1)
-229.086004705335

>  <r_j_Total_Free_Energy_(au)_298.15K_1.00E+00atm> (1)
-229.117697031208

>  <r_lp_tautomer_probability> (1)
1

>  <r_epik_Ionization_Penalty> (1)
  0.0000

>  <r_epik_Ionization_Penalty_Charging> (1)
  0.0000

>  <r_epik_Ionization_Penalty_Neutral> (1)
  0.0000

>  <r_epik_State_Penalty> (1)
  0.0000

>  <r_epik_Charging_Adjusted_Penalty> (1)
0

>  <i_epik_Tot_Q> (1)
0

>  <i_epik_Tot_abs_Q> (1)
0

>  <s_lp_Force_Field> (1)
S-OPLS

>  <r_lp_Energy> (1)
0.904233

>  <b_lp_Chiralities_Consistent> (1)
1

>  <s_epik_Chemistry_Notes> (1)
This compound has an ester and may undergo hydrolysis at high or low pH.

$$$$
