7872_Di-T-Butyl Sulfide
                    3D
 Schrodinger Suite 2021-3.
 27 26  0  0  1  0            999 V2000
   -0.6064    1.5138   -0.6416 C   0  0  0  0  0  0
   -0.3006    0.1383   -0.0169 C   0  0  0  0  0  0
   -1.2637   -0.1139    1.1493 C   0  0  0  0  0  0
   -0.4536   -0.9481   -1.0935 C   0  0  0  0  0  0
    1.4876    0.3206    0.5240 S   0  0  0  0  0  0
    1.9995   -1.0332    1.7192 C   0  0  0  0  0  0
    3.5372   -0.9258    1.7129 C   0  0  0  0  0  0
    1.5880   -2.4364    1.2581 C   0  0  0  0  0  0
    1.4816   -0.7537    3.1393 C   0  0  0  0  0  0
   -1.6217    1.5062   -1.0555 H   0  0  0  0  0  0
    0.0857    1.7471   -1.4572 H   0  0  0  0  0  0
   -0.5437    2.3131    0.1022 H   0  0  0  0  0  0
   -1.1458    0.6408    1.9314 H   0  0  0  0  0  0
   -1.1179   -1.1011    1.5942 H   0  0  0  0  0  0
   -2.2970   -0.0701    0.7833 H   0  0  0  0  0  0
   -1.4819   -0.9463   -1.4778 H   0  0  0  0  0  0
   -0.2476   -1.9455   -0.7020 H   0  0  0  0  0  0
    0.2253   -0.7645   -1.9305 H   0  0  0  0  0  0
    3.9532   -1.6392    2.4340 H   0  0  0  0  0  0
    3.8708    0.0759    2.0024 H   0  0  0  0  0  0
    3.9494   -1.1538    0.7259 H   0  0  0  0  0  0
    1.9318   -2.6362    0.2399 H   0  0  0  0  0  0
    0.5052   -2.5776    1.2933 H   0  0  0  0  0  0
    2.0365   -3.1839    1.9244 H   0  0  0  0  0  0
    1.8979   -1.4919    3.8370 H   0  0  0  0  0  0
    0.3939   -0.8170    3.1992 H   0  0  0  0  0  0
    1.7832    0.2423    3.4742 H   0  0  0  0  0  0
  1  2  1  0  0  0
  1 10  1  0  0  0
  1 11  1  0  0  0
  1 12  1  0  0  0
  2  3  1  0  0  0
  2  4  1  0  0  0
  2  5  1  0  0  0
  3 13  1  0  0  0
  3 14  1  0  0  0
  3 15  1  0  0  0
  4 16  1  0  0  0
  4 17  1  0  0  0
  4 18  1  0  0  0
  5  6  1  0  0  0
  6  7  1  0  0  0
  6  8  1  0  0  0
  6  9  1  0  0  0
  7 19  1  0  0  0
  7 20  1  0  0  0
  7 21  1  0  0  0
  8 22  1  0  0  0
  8 23  1  0  0  0
  8 24  1  0  0  0
  9 25  1  0  0  0
  9 26  1  0  0  0
  9 27  1  0  0  0
M  END
>  <i_m_Spin_multiplicity> (1)
1

>  <s_j_Task> (1)
Single Point

>  <s_j_QM_Method> (1)
DFT(b3lyp-d3)

>  <s_j_QM_Basis> (1)
cc-pvtz(-f)

>  <i_j_Number_of_canonical_orbitals> (1)
373

>  <i_j_Geometry_convergence_category> (1)
3

>  <r_j_Gas_Phase_Energy> (1)
-714.061884540573

>  <r_j_Final_Energy> (1)
-714.061884540573

>  <r_j_HOMO> (1)
-0.222195674340641

>  <r_j_LUMO> (1)
0.0120246641049954

>  <r_j_Polarizability> (1)
120.262672331716

>  <r_j_QM_Dipole_(debye)> (1)
1.46935632359781

>  <r_j_QM_Dipole_X_(debye)> (1)
-0.892417040425539

>  <r_j_QM_Dipole_Y_(debye)> (1)
-1.07397772021547

>  <r_j_QM_Dipole_Z_(debye)> (1)
0.457352914209331

>  <r_j_Lowest_Frequency_(cm-1)> (1)
95.6953312273757

>  <r_j_Highest_Frequency_(cm-1)> (1)
3091.68487941304

>  <r_j_2nd_Lowest_Frequency_(cm-1)> (1)
110.425016304775

>  <i_j_Num_Negative_Frequencies> (1)
0

>  <r_j_Zero_Point_Energy_(kcal/mol)> (1)
153.842735903795

>  <r_j_Entropy_(cal/mol/K)_298.15K_1.00E+00atm> (1)
100.978799497211

>  <r_j_Enthalpy_(kcal/mol)_298.15K_1.00E+00atm> (1)
7.89993420429128

>  <r_j_Free_Energy_(kcal/mol)_298.15K_1.00E+00atm> (1)
-22.2068948658021

>  <r_j_Internal_Energy_(kcal/mol)_298.15K_1.00E+00atm> (1)
7.30744861546401

>  <r_j_Heat_Capacity_(cal/mol/K)_298.15K_1.00E+00atm> (1)
46.3702441627214

>  <r_j_ln(Q)_298.15K_1.00E+00atm> (1)
37.4809029697362

>  <r_j_Total_Internal_Energy_(au)_298.15K_1.00E+00atm> (1)
-713.805075373184

>  <r_j_Total_Enthalpy_(au)_298.15K_1.00E+00atm> (1)
-713.804131187292

>  <r_j_Total_Free_Energy_(au)_298.15K_1.00E+00atm> (1)
-713.852109473692

>  <r_lp_tautomer_probability> (1)
1

>  <r_epik_Ionization_Penalty> (1)
  0.0000

>  <r_epik_Ionization_Penalty_Charging> (1)
  0.0000

>  <r_epik_Ionization_Penalty_Neutral> (1)
  0.0000

>  <r_epik_State_Penalty> (1)
  0.0000

>  <r_epik_Charging_Adjusted_Penalty> (1)
0

>  <i_epik_Tot_Q> (1)
0

>  <i_epik_Tot_abs_Q> (1)
0

>  <s_lp_Force_Field> (1)
S-OPLS

>  <r_lp_Energy> (1)
9.82817

>  <b_lp_Chiralities_Consistent> (1)
1

$$$$
