7892_2-methylpentane
                    3D
 Schrodinger Suite 2021-3.
 20 19  0  0  1  0            999 V2000
   -2.1357    1.4286    0.0842 C   0  0  0  0  0  0
   -0.6067    1.4513   -0.0096 C   0  0  0  0  0  0
    0.0013    0.0444   -0.0723 C   0  0  0  0  0  0
    1.5405   -0.0072   -0.0551 C   0  0  0  0  0  0
    2.1621    0.6872   -1.2758 C   0  0  0  0  0  0
    2.0272   -1.4605    0.0389 C   0  0  0  0  0  0
   -2.5519    2.4405    0.1246 H   0  0  0  0  0  0
   -2.4685    0.8942    0.9815 H   0  0  0  0  0  0
   -2.5754    0.9215   -0.7824 H   0  0  0  0  0  0
   -0.3090    2.0281   -0.8936 H   0  0  0  0  0  0
   -0.1927    1.9849    0.8571 H   0  0  0  0  0  0
   -0.3782   -0.5388    0.7788 H   0  0  0  0  0  0
   -0.3624   -0.4689   -0.9754 H   0  0  0  0  0  0
    1.8810    0.5233    0.8473 H   0  0  0  0  0  0
    1.8177    0.2151   -2.2046 H   0  0  0  0  0  0
    3.2550    0.6163   -1.2530 H   0  0  0  0  0  0
    1.9012    1.7486   -1.3240 H   0  0  0  0  0  0
    1.7109   -2.0330   -0.8419 H   0  0  0  0  0  0
    1.6219   -1.9623    0.9244 H   0  0  0  0  0  0
    3.1201   -1.5124    0.0929 H   0  0  0  0  0  0
  1  2  1  0  0  0
  1  7  1  0  0  0
  1  8  1  0  0  0
  1  9  1  0  0  0
  2  3  1  0  0  0
  2 10  1  0  0  0
  2 11  1  0  0  0
  3  4  1  0  0  0
  3 12  1  0  0  0
  3 13  1  0  0  0
  4  5  1  0  0  0
  4  6  1  0  0  0
  4 14  1  0  0  0
  5 15  1  0  0  0
  5 16  1  0  0  0
  5 17  1  0  0  0
  6 18  1  0  0  0
  6 19  1  0  0  0
  6 20  1  0  0  0
M  END
>  <i_m_Spin_multiplicity> (1)
1

>  <s_j_Task> (1)
Single Point

>  <s_j_QM_Method> (1)
DFT(b3lyp-d3)

>  <s_j_QM_Basis> (1)
cc-pvtz(-f)

>  <i_j_Number_of_canonical_orbitals> (1)
263

>  <i_j_Geometry_convergence_category> (1)
3

>  <r_j_Gas_Phase_Energy> (1)
-237.182850747895

>  <r_j_Final_Energy> (1)
-237.182850747895

>  <r_j_HOMO> (1)
-0.309185529547806

>  <r_j_LUMO> (1)
0.0334822051456822

>  <r_j_Polarizability> (1)
75.3759024683283

>  <r_j_QM_Dipole_(debye)> (1)
0.128179265131131

>  <r_j_QM_Dipole_X_(debye)> (1)
0.0391167576461755

>  <r_j_QM_Dipole_Y_(debye)> (1)
0.0942520863956448

>  <r_j_QM_Dipole_Z_(debye)> (1)
0.0775651177455117

>  <r_j_Lowest_Frequency_(cm-1)> (1)
130.337124741647

>  <r_j_Highest_Frequency_(cm-1)> (1)
3054.46419284291

>  <r_j_2nd_Lowest_Frequency_(cm-1)> (1)
150.266127644089

>  <i_j_Num_Negative_Frequencies> (1)
0

>  <r_j_Zero_Point_Energy_(kcal/mol)> (1)
118.17283578765

>  <r_j_Entropy_(cal/mol/K)_298.15K_1.00E+00atm> (1)
83.8603965594116

>  <r_j_Enthalpy_(kcal/mol)_298.15K_1.00E+00atm> (1)
5.47677489263406

>  <r_j_Free_Energy_(kcal/mol)_298.15K_1.00E+00atm> (1)
-19.5262023415545

>  <r_j_Internal_Energy_(kcal/mol)_298.15K_1.00E+00atm> (1)
4.88428930380678

>  <r_j_Heat_Capacity_(cal/mol/K)_298.15K_1.00E+00atm> (1)
29.1143924123733

>  <r_j_ln(Q)_298.15K_1.00E+00atm> (1)
32.9564173538859

>  <r_j_Total_Internal_Energy_(au)_298.15K_1.00E+00atm> (1)
-236.986746735167

>  <r_j_Total_Enthalpy_(au)_298.15K_1.00E+00atm> (1)
-236.985802549275

>  <r_j_Total_Free_Energy_(au)_298.15K_1.00E+00atm> (1)
-237.025647329999

>  <r_lp_tautomer_probability> (1)
1

>  <r_epik_Ionization_Penalty> (1)
  0.0000

>  <r_epik_Ionization_Penalty_Charging> (1)
  0.0000

>  <r_epik_Ionization_Penalty_Neutral> (1)
  0.0000

>  <r_epik_State_Penalty> (1)
  0.0000

>  <r_epik_Charging_Adjusted_Penalty> (1)
0

>  <i_epik_Tot_Q> (1)
0

>  <i_epik_Tot_abs_Q> (1)
0

>  <s_lp_Force_Field> (1)
S-OPLS

>  <r_lp_Energy> (1)
2.336261

>  <b_lp_Chiralities_Consistent> (1)
1

$$$$
