7904_Vinyl acetate
                    3D
 Schrodinger Suite 2021-3.
 12 11  0  0  1  0            999 V2000
   -0.0855   -0.0064   -0.0353 C   0  0  0  0  0  0
    1.3848   -0.0377   -0.3598 C   0  0  0  0  0  0
    1.9033   -0.6526   -1.2603 O   0  0  0  0  0  0
    2.0749    0.7424    0.5324 O   0  0  0  0  0  0
    3.4511    0.8295    0.3949 C   0  0  0  0  0  0
    4.1542    1.5762    1.2380 C   0  0  0  0  0  0
   -0.4451    1.0264   -0.0250 H   0  0  0  0  0  0
   -0.2510   -0.4202    0.9640 H   0  0  0  0  0  0
   -0.6312   -0.5901   -0.7755 H   0  0  0  0  0  0
    3.8617    0.2549   -0.4273 H   0  0  0  0  0  0
    3.6796    2.1278    2.0416 H   0  0  0  0  0  0
    5.2297    1.6419    1.1278 H   0  0  0  0  0  0
  1  2  1  0  0  0
  1  7  1  0  0  0
  1  8  1  0  0  0
  1  9  1  0  0  0
  2  3  2  0  0  0
  2  4  1  0  0  0
  4  5  1  0  0  0
  5  6  2  0  0  0
  5 10  1  0  0  0
  6 11  1  0  0  0
  6 12  1  0  0  0
M  END
>  <i_m_Spin_multiplicity> (1)
1

>  <s_j_Task> (1)
Single Point

>  <s_j_QM_Method> (1)
DFT(b3lyp-d3)

>  <s_j_QM_Basis> (1)
cc-pvtz(-f)

>  <i_j_Number_of_canonical_orbitals> (1)
191

>  <i_j_Geometry_convergence_category> (1)
0

>  <r_j_Gas_Phase_Energy> (1)
-306.589045248641

>  <r_j_Final_Energy> (1)
-306.589045248641

>  <r_j_HOMO> (1)
-0.258864791124392

>  <r_j_LUMO> (1)
-0.022235302869203

>  <r_j_Polarizability> (1)
55.61823102543

>  <r_j_QM_Dipole_(debye)> (1)
1.77793976641771

>  <r_j_QM_Dipole_X_(debye)> (1)
-0.899620304654971

>  <r_j_QM_Dipole_Y_(debye)> (1)
0.83562508955047

>  <r_j_QM_Dipole_Z_(debye)> (1)
1.28587862186745

>  <r_j_Lowest_Frequency_(cm-1)> (1)
130.092492112849

>  <r_j_Highest_Frequency_(cm-1)> (1)
3215.88953150518

>  <r_j_2nd_Lowest_Frequency_(cm-1)> (1)
176.702047558964

>  <i_j_Num_Negative_Frequencies> (1)
0

>  <r_j_Zero_Point_Energy_(kcal/mol)> (1)
58.9667537951671

>  <r_j_Entropy_(cal/mol/K)_298.15K_1.00E+00atm> (1)
78.6046019594403

>  <r_j_Enthalpy_(kcal/mol)_298.15K_1.00E+00atm> (1)
4.62492831020213

>  <r_j_Free_Energy_(kcal/mol)_298.15K_1.00E+00atm> (1)
-18.811033764005

>  <r_j_Internal_Energy_(kcal/mol)_298.15K_1.00E+00atm> (1)
4.03244272137485

>  <r_j_Heat_Capacity_(cal/mol/K)_298.15K_1.00E+00atm> (1)
22.2419197584549

>  <r_j_ln(Q)_298.15K_1.00E+00atm> (1)
31.7493524209395

>  <r_j_Total_Internal_Energy_(au)_298.15K_1.00E+00atm> (1)
-306.488649637852

>  <r_j_Total_Enthalpy_(au)_298.15K_1.00E+00atm> (1)
-306.48770545196

>  <r_j_Total_Free_Energy_(au)_298.15K_1.00E+00atm> (1)
-306.525053035055

>  <r_lp_tautomer_probability> (1)
1

>  <r_epik_Ionization_Penalty> (1)
  0.0000

>  <r_epik_Ionization_Penalty_Charging> (1)
  0.0000

>  <r_epik_Ionization_Penalty_Neutral> (1)
  0.0000

>  <r_epik_State_Penalty> (1)
  0.0000

>  <r_epik_Charging_Adjusted_Penalty> (1)
0

>  <i_epik_Tot_Q> (1)
0

>  <i_epik_Tot_abs_Q> (1)
0

>  <s_lp_Force_Field> (1)
S-OPLS

>  <r_lp_Energy> (1)
3.903101

>  <b_lp_Chiralities_Consistent> (1)
1

$$$$
