7907_2,4-dimethylpentane
                    3D
 Schrodinger Suite 2021-3.
 23 22  0  0  1  0            999 V2000
   -0.6802   -0.7010   -1.2129 C   0  0  0  0  0  0
   -0.0670    0.0600   -0.0290 C   0  0  0  0  0  0
   -0.4950    1.5346   -0.0568 C   0  0  0  0  0  0
    1.4706   -0.0415    0.0002 C   0  0  0  0  0  0
    2.0788   -1.4573    0.0291 C   0  0  0  0  0  0
    1.5659   -2.2893    1.2129 C   0  0  0  0  0  0
    3.6117   -1.3694    0.0566 C   0  0  0  0  0  0
   -0.2759   -0.3296   -2.1628 H   0  0  0  0  0  0
   -1.7677   -0.5723   -1.2413 H   0  0  0  0  0  0
   -0.4758   -1.7748   -1.1611 H   0  0  0  0  0  0
   -0.4594   -0.3809    0.8980 H   0  0  0  0  0  0
   -0.1424    2.0244   -0.9731 H   0  0  0  0  0  0
   -0.0825    2.0870    0.7947 H   0  0  0  0  0  0
   -1.5856    1.6334   -0.0261 H   0  0  0  0  0  0
    1.8674    0.4898   -0.8778 H   0  0  0  0  0  0
    1.8390    0.5095    0.8784 H   0  0  0  0  0  0
    1.7938   -1.9740   -0.8980 H   0  0  0  0  0  0
    1.7817   -1.7846    2.1629 H   0  0  0  0  0  0
    2.0496   -3.2718    1.2409 H   0  0  0  0  0  0
    0.4853   -2.4543    1.1613 H   0  0  0  0  0  0
    3.9562   -0.8741    0.9731 H   0  0  0  0  0  0
    3.9950   -0.7961   -0.7948 H   0  0  0  0  0  0
    4.0682   -2.3647    0.0254 H   0  0  0  0  0  0
  1  2  1  0  0  0
  1  8  1  0  0  0
  1  9  1  0  0  0
  1 10  1  0  0  0
  2  3  1  0  0  0
  2  4  1  0  0  0
  2 11  1  0  0  0
  3 12  1  0  0  0
  3 13  1  0  0  0
  3 14  1  0  0  0
  4  5  1  0  0  0
  4 15  1  0  0  0
  4 16  1  0  0  0
  5  6  1  0  0  0
  5  7  1  0  0  0
  5 17  1  0  0  0
  6 18  1  0  0  0
  6 19  1  0  0  0
  6 20  1  0  0  0
  7 21  1  0  0  0
  7 22  1  0  0  0
  7 23  1  0  0  0
M  END
>  <i_m_Spin_multiplicity> (1)
1

>  <s_j_Task> (1)
Single Point

>  <s_j_QM_Method> (1)
DFT(b3lyp-d3)

>  <s_j_QM_Basis> (1)
cc-pvtz(-f)

>  <i_j_Number_of_canonical_orbitals> (1)
304

>  <i_j_Geometry_convergence_category> (1)
0

>  <r_j_Gas_Phase_Energy> (1)
-276.513280054306

>  <r_j_Final_Energy> (1)
-276.513280054306

>  <r_j_HOMO> (1)
-0.309426128618254

>  <r_j_LUMO> (1)
0.0218132662503868

>  <r_j_Polarizability> (1)
86.99076495707

>  <r_j_QM_Dipole_(debye)> (1)
0.110413411495497

>  <r_j_QM_Dipole_X_(debye)> (1)
-0.0637516361218758

>  <r_j_QM_Dipole_Y_(debye)> (1)
-0.0901489803460624

>  <r_j_QM_Dipole_Z_(debye)> (1)
-0.000108038989193786

>  <r_j_Lowest_Frequency_(cm-1)> (1)
100.48928352429

>  <r_j_Highest_Frequency_(cm-1)> (1)
3052.26381773627

>  <r_j_2nd_Lowest_Frequency_(cm-1)> (1)
148.28070986614

>  <i_j_Num_Negative_Frequencies> (1)
0

>  <r_j_Zero_Point_Energy_(kcal/mol)> (1)
135.896921339668

>  <r_j_Entropy_(cal/mol/K)_298.15K_1.00E+00atm> (1)
89.0440965433329

>  <r_j_Enthalpy_(kcal/mol)_298.15K_1.00E+00atm> (1)
6.17697307974535

>  <r_j_Free_Energy_(kcal/mol)_298.15K_1.00E+00atm> (1)
-20.3715243046494

>  <r_j_Internal_Energy_(kcal/mol)_298.15K_1.00E+00atm> (1)
5.58448749091807

>  <r_j_Heat_Capacity_(cal/mol/K)_298.15K_1.00E+00atm> (1)
34.2959650026449

>  <r_j_ln(Q)_298.15K_1.00E+00atm> (1)
34.383155791133

>  <r_j_Total_Internal_Energy_(au)_298.15K_1.00E+00atm> (1)
-276.287815076334

>  <r_j_Total_Enthalpy_(au)_298.15K_1.00E+00atm> (1)
-276.286870890442

>  <r_j_Total_Free_Energy_(au)_298.15K_1.00E+00atm> (1)
-276.329178614315

>  <r_lp_tautomer_probability> (1)
1

>  <r_epik_Ionization_Penalty> (1)
  0.0000

>  <r_epik_Ionization_Penalty_Charging> (1)
  0.0000

>  <r_epik_Ionization_Penalty_Neutral> (1)
  0.0000

>  <r_epik_State_Penalty> (1)
  0.0000

>  <r_epik_Charging_Adjusted_Penalty> (1)
0

>  <i_epik_Tot_Q> (1)
0

>  <i_epik_Tot_abs_Q> (1)
0

>  <s_lp_Force_Field> (1)
S-OPLS

>  <r_lp_Energy> (1)
3.16192

>  <b_lp_Chiralities_Consistent> (1)
1

$$$$
