7909_Methyl isobutyl ketone
                    3D
 Schrodinger Suite 2021-3.
 19 18  0  0  1  0            999 V2000
   -0.4732   -0.7271   -1.3445 C   0  0  0  0  0  0
    0.0080   -0.0278   -0.0662 C   0  0  0  0  0  0
   -0.5734    1.3884    0.0383 C   0  0  0  0  0  0
    1.5572    0.0288    0.0053 C   0  0  0  0  0  0
    2.1753   -1.3603    0.0661 C   0  0  0  0  0  0
    2.5219   -1.9475   -0.9427 O   0  0  0  0  0  0
    2.3009   -1.9935    1.4410 C   0  0  0  0  0  0
   -0.1579   -0.1635   -2.2304 H   0  0  0  0  0  0
   -1.5660   -0.7939   -1.3593 H   0  0  0  0  0  0
   -0.0640   -1.7362   -1.4375 H   0  0  0  0  0  0
   -0.3502   -0.6045    0.7994 H   0  0  0  0  0  0
   -0.2301    2.0089   -0.7979 H   0  0  0  0  0  0
   -0.2705    1.8810    0.9685 H   0  0  0  0  0  0
   -1.6680    1.3659    0.0083 H   0  0  0  0  0  0
    1.9406    0.5313   -0.8892 H   0  0  0  0  0  0
    1.8549    0.6098    0.8870 H   0  0  0  0  0  0
    3.0432   -1.4441    2.0328 H   0  0  0  0  0  0
    2.6107   -3.0349    1.3445 H   0  0  0  0  0  0
    1.3524   -1.9322    1.9867 H   0  0  0  0  0  0
  1  2  1  0  0  0
  1  8  1  0  0  0
  1  9  1  0  0  0
  1 10  1  0  0  0
  2  3  1  0  0  0
  2  4  1  0  0  0
  2 11  1  0  0  0
  3 12  1  0  0  0
  3 13  1  0  0  0
  3 14  1  0  0  0
  4  5  1  0  0  0
  4 15  1  0  0  0
  4 16  1  0  0  0
  5  6  2  0  0  0
  5  7  1  0  0  0
  7 17  1  0  0  0
  7 18  1  0  0  0
  7 19  1  0  0  0
M  END
>  <i_m_Spin_multiplicity> (1)
1

>  <s_j_Task> (1)
Single Point

>  <s_j_QM_Method> (1)
DFT(b3lyp-d3)

>  <s_j_QM_Basis> (1)
cc-pvtz(-f)

>  <i_j_Number_of_canonical_orbitals> (1)
268

>  <i_j_Geometry_convergence_category> (1)
1

>  <r_j_Gas_Phase_Energy> (1)
-311.221356729696

>  <r_j_Final_Energy> (1)
-311.221356729696

>  <r_j_HOMO> (1)
-0.256349666297941

>  <r_j_LUMO> (1)
-0.0313151835096528

>  <r_j_Polarizability> (1)
75.2475839352356

>  <r_j_QM_Dipole_(debye)> (1)
2.86556051445061

>  <r_j_QM_Dipole_X_(debye)> (1)
-1.07562168339906

>  <r_j_QM_Dipole_Y_(debye)> (1)
1.37939267588165

>  <r_j_QM_Dipole_Z_(debye)> (1)
2.26974688058036

>  <r_j_Lowest_Frequency_(cm-1)> (1)
77.0878608921009

>  <r_j_Highest_Frequency_(cm-1)> (1)
3099.92749535472

>  <r_j_2nd_Lowest_Frequency_(cm-1)> (1)
120.97069797999

>  <i_j_Num_Negative_Frequencies> (1)
0

>  <r_j_Zero_Point_Energy_(kcal/mol)> (1)
106.158768665931

>  <r_j_Entropy_(cal/mol/K)_298.15K_1.00E+00atm> (1)
87.5167861684284

>  <r_j_Enthalpy_(kcal/mol)_298.15K_1.00E+00atm> (1)
5.84652128526251

>  <r_j_Free_Energy_(kcal/mol)_298.15K_1.00E+00atm> (1)
-20.2466085108544

>  <r_j_Internal_Energy_(kcal/mol)_298.15K_1.00E+00atm> (1)
5.25403569643524

>  <r_j_Heat_Capacity_(cal/mol/K)_298.15K_1.00E+00atm> (1)
30.9543458517936

>  <r_j_ln(Q)_298.15K_1.00E+00atm> (1)
34.1723223191456

>  <r_j_Total_Internal_Energy_(au)_298.15K_1.00E+00atm> (1)
-311.043809123343

>  <r_j_Total_Enthalpy_(au)_298.15K_1.00E+00atm> (1)
-311.042864937451

>  <r_j_Total_Free_Energy_(au)_298.15K_1.00E+00atm> (1)
-311.084446986876

>  <r_lp_tautomer_probability> (1)
1

>  <r_epik_Ionization_Penalty> (1)
  0.0000

>  <r_epik_Ionization_Penalty_Charging> (1)
  0.0000

>  <r_epik_Ionization_Penalty_Neutral> (1)
  0.0000

>  <r_epik_State_Penalty> (1)
  0.0000

>  <r_epik_Charging_Adjusted_Penalty> (1)
0

>  <i_epik_Tot_Q> (1)
0

>  <i_epik_Tot_abs_Q> (1)
0

>  <s_lp_Force_Field> (1)
S-OPLS

>  <r_lp_Energy> (1)
0.182312

>  <b_lp_Chiralities_Consistent> (1)
1

$$$$
