7912_Bis(Isopropyl)Amine
                    3D
 Schrodinger Suite 2021-3.
 23 22  0  0  1  0            999 V2000
   -0.5194   -0.6411    1.2685 C   0  0  0  0  0  0
   -0.1181   -0.0468   -0.0781 C   0  0  0  0  0  0
   -0.5769   -0.8870   -1.2667 C   0  0  0  0  0  0
    1.4209    0.0927   -0.1394 N   0  3  1  0  0  0
    2.0173    1.4949    0.0506 C   0  0  0  0  0  0
    3.5176    1.4094   -0.2179 C   0  0  0  0  0  0
    1.6837    2.0294    1.4382 C   0  0  0  0  0  0
   -1.6094   -0.6736    1.3335 H   0  0  0  0  0  0
   -0.1535   -0.0506    2.1117 H   0  0  0  0  0  0
   -0.1538   -1.6695    1.3681 H   0  0  0  0  0  0
   -0.4936    0.9753   -0.1752 H   0  0  0  0  0  0
   -1.6670   -0.9622   -1.2547 H   0  0  0  0  0  0
   -0.1754   -1.9048   -1.2141 H   0  0  0  0  0  0
   -0.2904   -0.4350   -2.2224 H   0  0  0  0  0  0
    1.8393   -0.5335    0.5577 H   0  0  0  0  0  0
    1.5276    2.0993   -0.7199 H   0  0  0  0  0  0
    3.9500    2.4106   -0.1529 H   0  0  0  0  0  0
    3.7389    1.0210   -1.2177 H   0  0  0  0  0  0
    4.0214    0.7830    0.5266 H   0  0  0  0  0  0
    2.1282    3.0219    1.5441 H   0  0  0  0  0  0
    2.1069    1.3926    2.2227 H   0  0  0  0  0  0
    0.6091    2.1330    1.6031 H   0  0  0  0  0  0
    1.7419   -0.2554   -1.0483 H   0  0  0  0  0  0
  1  2  1  0  0  0
  1  8  1  0  0  0
  1  9  1  0  0  0
  1 10  1  0  0  0
  2  3  1  0  0  0
  2  4  1  0  0  0
  2 11  1  0  0  0
  3 12  1  0  0  0
  3 13  1  0  0  0
  3 14  1  0  0  0
  4  5  1  0  0  0
  4 15  1  0  0  0
  4 23  1  0  0  0
  5  6  1  0  0  0
  5  7  1  0  0  0
  5 16  1  0  0  0
  6 17  1  0  0  0
  6 18  1  0  0  0
  6 19  1  0  0  0
  7 20  1  0  0  0
  7 21  1  0  0  0
  7 22  1  0  0  0
M  END
>  <i_m_Spin_multiplicity> (1)
1

>  <s_j_Task> (1)
Single Point

>  <s_j_QM_Method> (1)
DFT(b3lyp-d3)

>  <s_j_QM_Basis> (1)
cc-pvtz(-f)

>  <i_j_Number_of_canonical_orbitals> (1)
305

>  <i_j_Geometry_convergence_category> (1)
0

>  <r_j_Gas_Phase_Energy> (1)
-292.933254573967

>  <r_j_Final_Energy> (1)
-292.933254573967

>  <r_j_HOMO> (1)
-0.514041222347868

>  <r_j_LUMO> (1)
-0.152135394499261

>  <r_j_Polarizability> (1)
78.1494555256307

>  <r_j_QM_Dipole_(debye)> (1)
1.2686606064153

>  <r_j_QM_Dipole_X_(debye)> (1)
0.74188917136544

>  <r_j_QM_Dipole_Y_(debye)> (1)
-0.734653973159921

>  <r_j_QM_Dipole_Z_(debye)> (1)
-0.720682823023477

>  <r_j_Lowest_Frequency_(cm-1)> (1)
101.798565338206

>  <r_j_Highest_Frequency_(cm-1)> (1)
3416.18371104529

>  <r_j_2nd_Lowest_Frequency_(cm-1)> (1)
112.346307224206

>  <i_j_Num_Negative_Frequencies> (1)
0

>  <r_j_Zero_Point_Energy_(kcal/mol)> (1)
138.18902907974

>  <r_j_Entropy_(cal/mol/K)_298.15K_1.00E+00atm> (1)
89.3960224756704

>  <r_j_Enthalpy_(kcal/mol)_298.15K_1.00E+00atm> (1)
6.19697470659129

>  <r_j_Free_Energy_(kcal/mol)_298.15K_1.00E+00atm> (1)
-20.4564493945299

>  <r_j_Internal_Energy_(kcal/mol)_298.15K_1.00E+00atm> (1)
5.60448911776401

>  <r_j_Heat_Capacity_(cal/mol/K)_298.15K_1.00E+00atm> (1)
34.3489797682958

>  <r_j_ln(Q)_298.15K_1.00E+00atm> (1)
34.526492762499

>  <r_j_Total_Internal_Energy_(au)_298.15K_1.00E+00atm> (1)
-292.70410501516

>  <r_j_Total_Enthalpy_(au)_298.15K_1.00E+00atm> (1)
-292.703160829268

>  <r_j_Total_Free_Energy_(au)_298.15K_1.00E+00atm> (1)
-292.745635764509

>  <r_lp_tautomer_probability> (1)
1

>  <r_epik_Ionization_Penalty> (1)
  0.0003

>  <r_epik_Ionization_Penalty_Charging> (1)
  0.0003

>  <r_epik_Ionization_Penalty_Neutral> (1)
  0.0000

>  <r_epik_State_Penalty> (1)
  0.0000

>  <r_epik_Charging_Adjusted_Penalty> (1)
0.000270756371576617

>  <i_epik_Tot_Q> (1)
1

>  <i_epik_Tot_abs_Q> (1)
1

>  <s_lp_Force_Field> (1)
S-OPLS

>  <r_lp_Energy> (1)
8.10601

>  <b_lp_Chiralities_Consistent> (1)
1

$$$$
