7918_Acetic anhydride
                    3D
 Schrodinger Suite 2021-3.
 13 12  0  0  1  0            999 V2000
   -0.0478   -0.0236   -0.0001 C   0  0  0  0  0  0
    1.4643   -0.0414    0.0004 C   0  0  0  0  0  0
    2.1435   -1.0284    0.0013 O   0  0  0  0  0  0
    1.9426    1.2709   -0.0001 O   0  0  0  0  0  0
    3.3009    1.5964   -0.0012 C   0  0  0  0  0  0
    4.2040    0.8091   -0.0030 O   0  0  0  0  0  0
    3.4556    3.1006    0.0000 C   0  0  0  0  0  0
   -0.4541    0.9871   -0.0011 H   0  0  0  0  0  0
   -0.3997   -0.5673    0.8810 H   0  0  0  0  0  0
   -0.3991   -0.5688   -0.8807 H   0  0  0  0  0  0
    2.4979    3.6196    0.0019 H   0  0  0  0  0  0
    4.0354    3.3887   -0.8814 H   0  0  0  0  0  0
    4.0380    3.3870    0.8803 H   0  0  0  0  0  0
  1  2  1  0  0  0
  1  8  1  0  0  0
  1  9  1  0  0  0
  1 10  1  0  0  0
  2  3  2  0  0  0
  2  4  1  0  0  0
  4  5  1  0  0  0
  5  6  2  0  0  0
  5  7  1  0  0  0
  7 11  1  0  0  0
  7 12  1  0  0  0
  7 13  1  0  0  0
M  END
>  <i_m_Spin_multiplicity> (1)
1

>  <s_j_Task> (1)
Single Point

>  <s_j_QM_Method> (1)
DFT(b3lyp-d3)

>  <s_j_QM_Basis> (1)
cc-pvtz(-f)

>  <i_j_Number_of_canonical_orbitals> (1)
215

>  <i_j_Geometry_convergence_category> (1)
0

>  <r_j_Gas_Phase_Energy> (1)
-381.869689677148

>  <r_j_Final_Energy> (1)
-381.869689677148

>  <r_j_HOMO> (1)
-0.269531317550033

>  <r_j_LUMO> (1)
-0.0398132099065067

>  <r_j_Polarizability> (1)
56.3517099714008

>  <r_j_QM_Dipole_(debye)> (1)
4.26626918784241

>  <r_j_QM_Dipole_X_(debye)> (1)
-2.83945218469966

>  <r_j_QM_Dipole_Y_(debye)> (1)
3.1841108427042

>  <r_j_QM_Dipole_Z_(debye)> (1)
0.0014883922185496

>  <r_j_Lowest_Frequency_(cm-1)> (1)
51.6661631750317

>  <r_j_Highest_Frequency_(cm-1)> (1)
3117.53189340514

>  <r_j_2nd_Lowest_Frequency_(cm-1)> (1)
122.978724768027

>  <i_j_Num_Negative_Frequencies> (1)
0

>  <r_j_Zero_Point_Energy_(kcal/mol)> (1)
61.4209454155118

>  <r_j_Entropy_(cal/mol/K)_298.15K_1.00E+00atm> (1)
85.8476559807192

>  <r_j_Enthalpy_(kcal/mol)_298.15K_1.00E+00atm> (1)
5.4289815087794

>  <r_j_Free_Energy_(kcal/mol)_298.15K_1.00E+00atm> (1)
-20.166497121872

>  <r_j_Internal_Energy_(kcal/mol)_298.15K_1.00E+00atm> (1)
4.83649591995213

>  <r_j_Heat_Capacity_(cal/mol/K)_298.15K_1.00E+00atm> (1)
26.0551336559238

>  <r_j_ln(Q)_298.15K_1.00E+00atm> (1)
34.0371099350926

>  <r_j_Total_Internal_Energy_(au)_298.15K_1.00E+00atm> (1)
-381.764101722698

>  <r_j_Total_Enthalpy_(au)_298.15K_1.00E+00atm> (1)
-381.763157536805

>  <r_j_Total_Free_Energy_(au)_298.15K_1.00E+00atm> (1)
-381.803946528612

>  <r_lp_tautomer_probability> (1)
1

>  <r_epik_Ionization_Penalty> (1)
  0.0000

>  <r_epik_Ionization_Penalty_Charging> (1)
  0.0000

>  <r_epik_Ionization_Penalty_Neutral> (1)
  0.0000

>  <r_epik_State_Penalty> (1)
  0.0000

>  <r_epik_Charging_Adjusted_Penalty> (1)
0

>  <i_epik_Tot_Q> (1)
0

>  <i_epik_Tot_abs_Q> (1)
0

>  <s_lp_Force_Field> (1)
S-OPLS

>  <r_lp_Energy> (1)
6.48839

>  <b_lp_Chiralities_Consistent> (1)
1

$$$$
