7931_1-Chloro-3-methylbenzene
                    3D
 Schrodinger Suite 2021-3.
 15 15  0  0  1  0            999 V2000
   -0.0226   -0.0015    0.0000 C   0  0  0  0  0  0
    1.4881    0.0014    0.0000 C   0  0  0  0  0  0
    2.2037    1.2030    0.0000 C   0  0  0  0  0  0
    3.5980    1.1828    0.0000 C   0  0  0  0  0  0
    4.3105   -0.0125    0.0000 C   0  0  0  0  0  0
    3.5939   -1.2108    0.0000 C   0  0  0  0  0  0
    2.2014   -1.2055    0.0000 C   0  0  0  0  0  0
    4.4761    2.7116    0.0000 Cl  0  0  0  0  0  0
   -0.4289    1.0134    0.0000 H   0  0  0  0  0  0
   -0.4147   -0.5209    0.8816 H   0  0  0  0  0  0
   -0.4147   -0.5209   -0.8816 H   0  0  0  0  0  0
    1.6814    2.1540    0.0000 H   0  0  0  0  0  0
    5.3944   -0.0037    0.0000 H   0  0  0  0  0  0
    4.1334   -2.1535    0.0000 H   0  0  0  0  0  0
    1.6577   -2.1466    0.0000 H   0  0  0  0  0  0
  1  2  1  0  0  0
  1  9  1  0  0  0
  1 10  1  0  0  0
  1 11  1  0  0  0
  2  7  1  0  0  0
  2  3  2  0  0  0
  3  4  1  0  0  0
  3 12  1  0  0  0
  4  5  2  0  0  0
  4  8  1  0  0  0
  5  6  1  0  0  0
  5 13  1  0  0  0
  6  7  2  0  0  0
  6 14  1  0  0  0
  7 15  1  0  0  0
M  END
>  <i_m_Spin_multiplicity> (1)
1

>  <s_j_Task> (1)
Single Point

>  <s_j_QM_Method> (1)
DFT(b3lyp-d3)

>  <s_j_QM_Basis> (1)
cc-pvtz(-f)

>  <i_j_Number_of_canonical_orbitals> (1)
246

>  <i_j_Geometry_convergence_category> (1)
0

>  <r_j_Gas_Phase_Energy> (1)
-731.294609613874

>  <r_j_Final_Energy> (1)
-731.294609613874

>  <r_j_HOMO> (1)
-0.245559585732823

>  <r_j_LUMO> (1)
-0.0237543336302403

>  <r_j_Polarizability> (1)
90.0243278849094

>  <r_j_QM_Dipole_(debye)> (1)
2.11564912027814

>  <r_j_QM_Dipole_X_(debye)> (1)
-1.36229057822221

>  <r_j_QM_Dipole_Y_(debye)> (1)
-1.61868328606611

>  <r_j_QM_Dipole_Z_(debye)> (1)
5.55521302935364e-06

>  <r_j_Lowest_Frequency_(cm-1)> (1)
179.306240859003

>  <r_j_Highest_Frequency_(cm-1)> (1)
3165.14604240492

>  <r_j_2nd_Lowest_Frequency_(cm-1)> (1)
191.971799460161

>  <i_j_Num_Negative_Frequencies> (1)
0

>  <r_j_Zero_Point_Energy_(kcal/mol)> (1)
74.02544545705

>  <r_j_Entropy_(cal/mol/K)_298.15K_1.00E+00atm> (1)
83.2226566667631

>  <r_j_Enthalpy_(kcal/mol)_298.15K_1.00E+00atm> (1)
4.98365280356107

>  <r_j_Free_Energy_(kcal/mol)_298.15K_1.00E+00atm> (1)
-19.8291822816343

>  <r_j_Internal_Energy_(kcal/mol)_298.15K_1.00E+00atm> (1)
4.3911672147338

>  <r_j_Heat_Capacity_(cal/mol/K)_298.15K_1.00E+00atm> (1)
26.7351648289933

>  <r_j_ln(Q)_298.15K_1.00E+00atm> (1)
33.4677883404436

>  <r_j_Total_Internal_Energy_(au)_298.15K_1.00E+00atm> (1)
-731.169644786376

>  <r_j_Total_Enthalpy_(au)_298.15K_1.00E+00atm> (1)
-731.168700600484

>  <r_j_Total_Free_Energy_(au)_298.15K_1.00E+00atm> (1)
-731.208242370404

>  <r_lp_tautomer_probability> (1)
1

>  <r_epik_Ionization_Penalty> (1)
  0.0000

>  <r_epik_Ionization_Penalty_Charging> (1)
  0.0000

>  <r_epik_Ionization_Penalty_Neutral> (1)
  0.0000

>  <r_epik_State_Penalty> (1)
  0.0000

>  <r_epik_Charging_Adjusted_Penalty> (1)
0

>  <i_epik_Tot_Q> (1)
0

>  <i_epik_Tot_abs_Q> (1)
0

>  <s_lp_Force_Field> (1)
S-OPLS

>  <r_lp_Energy> (1)
6.96978

>  <b_lp_Chiralities_Consistent> (1)
1

$$$$
