7946_Propylene glycol monomethyl ether acetate
                    3D
 Schrodinger Suite 2021-3.
 21 20  0  0  1  0            999 V2000
   -0.5192    1.3970   -0.1448 C   0  0  0  0  0  0
    0.0925    0.0145    0.0161 C   0  0  0  0  0  0
    1.6173    0.0275    0.0456 C   0  0  0  0  0  0
    2.1016    0.6949   -1.1034 O   0  0  0  0  0  0
    3.5122    0.7298   -1.1594 C   0  0  0  0  0  0
   -0.3820   -0.7687   -1.1130 O   0  0  0  0  0  0
   -0.3537   -2.1132   -0.9838 C   0  0  0  0  0  0
    0.0352   -2.6944    0.0079 O   0  0  0  0  0  0
   -0.8658   -2.7765   -2.2398 C   0  0  0  0  0  0
   -0.2320    2.0326    0.6987 H   0  0  0  0  0  0
   -1.6095    1.3294   -0.1765 H   0  0  0  0  0  0
   -0.1603    1.8592   -1.0663 H   0  0  0  0  0  0
   -0.2520   -0.4709    0.9354 H   0  0  0  0  0  0
    1.9422    0.5415    0.9680 H   0  0  0  0  0  0
    1.9886   -1.0064    0.0932 H   0  0  0  0  0  0
    3.7881    1.2528   -2.0784 H   0  0  0  0  0  0
    3.9474   -0.2822   -1.1816 H   0  0  0  0  0  0
    3.9448    1.2687   -0.3007 H   0  0  0  0  0  0
   -1.8703   -2.4130   -2.4737 H   0  0  0  0  0  0
   -0.8776   -3.8570   -2.1006 H   0  0  0  0  0  0
   -0.2190   -2.5137   -3.0822 H   0  0  0  0  0  0
  1  2  1  0  0  0
  1 10  1  0  0  0
  1 11  1  0  0  0
  1 12  1  0  0  0
  2  3  1  0  0  0
  2  6  1  0  0  0
  2 13  1  0  0  0
  3  4  1  0  0  0
  3 14  1  0  0  0
  3 15  1  0  0  0
  4  5  1  0  0  0
  5 16  1  0  0  0
  5 17  1  0  0  0
  5 18  1  0  0  0
  6  7  1  0  0  0
  7  8  2  0  0  0
  7  9  1  0  0  0
  9 19  1  0  0  0
  9 20  1  0  0  0
  9 21  1  0  0  0
M  END
>  <i_m_Spin_multiplicity> (1)
1

>  <s_j_Task> (1)
Single Point

>  <s_j_QM_Method> (1)
DFT(b3lyp-d3)

>  <s_j_QM_Basis> (1)
cc-pvtz(-f)

>  <i_j_Number_of_canonical_orbitals> (1)
315

>  <i_j_Geometry_convergence_category> (1)
0

>  <r_j_Gas_Phase_Energy> (1)
-461.72006597786

>  <r_j_Final_Energy> (1)
-461.72006597786

>  <r_j_HOMO> (1)
-0.260528837448478

>  <r_j_LUMO> (1)
0.000122851763712684

>  <r_j_Polarizability> (1)
83.8400818107392

>  <r_j_QM_Dipole_(debye)> (1)
1.27233192511951

>  <r_j_QM_Dipole_X_(debye)> (1)
0.421044802878462

>  <r_j_QM_Dipole_Y_(debye)> (1)
1.08625191420863

>  <r_j_QM_Dipole_Z_(debye)> (1)
-0.511474907034013

>  <r_j_Lowest_Frequency_(cm-1)> (1)
62.5111201901745

>  <r_j_Highest_Frequency_(cm-1)> (1)
3117.52322596365

>  <r_j_2nd_Lowest_Frequency_(cm-1)> (1)
102.864535146304

>  <i_j_Num_Negative_Frequencies> (1)
0

>  <r_j_Zero_Point_Energy_(kcal/mol)> (1)
112.317716368183

>  <r_j_Entropy_(cal/mol/K)_298.15K_1.00E+00atm> (1)
97.8376578233269

>  <r_j_Enthalpy_(kcal/mol)_298.15K_1.00E+00atm> (1)
7.0477265341201

>  <r_j_Free_Energy_(kcal/mol)_298.15K_1.00E+00atm> (1)
-22.1225711459048

>  <r_j_Internal_Energy_(kcal/mol)_298.15K_1.00E+00atm> (1)
6.45524094529282

>  <r_j_Heat_Capacity_(cal/mol/K)_298.15K_1.00E+00atm> (1)
37.0960682153311

>  <r_j_ln(Q)_298.15K_1.00E+00atm> (1)
37.3385809934934

>  <r_j_Total_Internal_Energy_(au)_298.15K_1.00E+00atm> (1)
-461.530789221107

>  <r_j_Total_Enthalpy_(au)_298.15K_1.00E+00atm> (1)
-461.529845035215

>  <r_j_Total_Free_Energy_(au)_298.15K_1.00E+00atm> (1)
-461.576330863835

>  <r_lp_tautomer_probability> (1)
1

>  <r_epik_Ionization_Penalty> (1)
  0.0000

>  <r_epik_Ionization_Penalty_Charging> (1)
  0.0000

>  <r_epik_Ionization_Penalty_Neutral> (1)
  0.0000

>  <r_epik_State_Penalty> (1)
  0.0000

>  <r_epik_Charging_Adjusted_Penalty> (1)
0

>  <i_epik_Tot_Q> (1)
0

>  <i_epik_Tot_abs_Q> (1)
0

>  <s_lp_Force_Field> (1)
S-OPLS

>  <r_lp_Energy> (1)
0.391485

>  <b_lp_Chiralities_Consistent> (1)
1

>  <s_epik_Chemistry_Notes> (1)
This compound has an ester and may undergo hydrolysis at high or low pH.

$$$$
