7950_1,3,5-Trichlorobenzene
                    3D
 Schrodinger Suite 2021-3.
 12 12  0  0  1  0            999 V2000
    7.9039   -5.5934    3.4296 C   0  0  0  0  0  0
    7.9290   -6.1629    4.7016 C   0  0  0  0  0  0
    8.1150   -7.5307    4.8950 C   0  0  0  0  0  0
    8.2788   -8.3346    3.7681 C   0  0  0  0  0  0
    8.2607   -7.8094    2.4771 C   0  0  0  0  0  0
    8.0719   -6.4360    2.3320 C   0  0  0  0  0  0
    8.0447   -5.7470    0.7190 Cl  0  0  0  0  0  0
    8.5149  -10.0597    3.9811 Cl  0  0  0  0  0  0
    7.7203   -5.1267    6.1016 Cl  0  0  0  0  0  0
    7.7585   -4.5290    3.2982 H   0  0  0  0  0  0
    8.1316   -7.9558    5.8901 H   0  0  0  0  0  0
    8.3895   -8.4487    1.6134 H   0  0  0  0  0  0
  1  6  1  0  0  0
  1  2  2  0  0  0
  1 10  1  0  0  0
  2  3  1  0  0  0
  2  9  1  0  0  0
  3  4  2  0  0  0
  3 11  1  0  0  0
  4  5  1  0  0  0
  4  8  1  0  0  0
  5  6  2  0  0  0
  5 12  1  0  0  0
  6  7  1  0  0  0
M  END
>  <i_m_Spin_multiplicity> (1)
1

>  <s_j_Task> (1)
Single Point

>  <s_j_QM_Method> (1)
DFT(b3lyp-d3)

>  <s_j_QM_Basis> (1)
cc-pvtz(-f)

>  <i_j_Number_of_canonical_orbitals> (1)
242

>  <i_j_Geometry_convergence_category> (1)
0

>  <r_j_Gas_Phase_Energy> (1)
-1611.22127410935

>  <r_j_Final_Energy> (1)
-1611.22127410935

>  <r_j_HOMO> (1)
-0.328864750121949

>  <r_j_LUMO> (1)
-0.109940630479215

>  <r_j_Polarizability> (1)
104.293131769105

>  <r_j_QM_Dipole_(debye)> (1)
0.000325472206120555

>  <r_j_QM_Dipole_X_(debye)> (1)
-3.93361889051934e-05

>  <r_j_QM_Dipole_Y_(debye)> (1)
-0.000310205916365389

>  <r_j_QM_Dipole_Z_(debye)> (1)
9.03167240952932e-05

>  <r_j_Lowest_Frequency_(cm-1)> (1)
137.394932069962

>  <r_j_Highest_Frequency_(cm-1)> (1)
3187.15673626366

>  <r_j_2nd_Lowest_Frequency_(cm-1)> (1)
190.031298885392

>  <i_j_Num_Negative_Frequencies> (1)
0

>  <r_j_Zero_Point_Energy_(kcal/mol)> (1)
44.7978794329738

>  <r_j_Entropy_(cal/mol/K)_298.15K_1.00E+00atm> (1)
90.1776467944972

>  <r_j_Enthalpy_(kcal/mol)_298.15K_1.00E+00atm> (1)
5.50247452060115

>  <r_j_Free_Energy_(kcal/mol)_298.15K_1.00E+00atm> (1)
-21.3839908711782

>  <r_j_Internal_Energy_(kcal/mol)_298.15K_1.00E+00atm> (1)
4.90998893177388

>  <r_j_Heat_Capacity_(cal/mol/K)_298.15K_1.00E+00atm> (1)
28.501009601611

>  <r_j_ln(Q)_298.15K_1.00E+00atm> (1)
36.0920016864954

>  <r_j_Total_Internal_Energy_(au)_298.15K_1.00E+00atm> (1)
-1611.14205957835

>  <r_j_Total_Enthalpy_(au)_298.15K_1.00E+00atm> (1)
-1611.14111539246

>  <r_j_Total_Free_Energy_(au)_298.15K_1.00E+00atm> (1)
-1611.18396170264

>  <r_lp_tautomer_probability> (1)
1

>  <r_epik_Ionization_Penalty> (1)
  0.0000

>  <r_epik_Ionization_Penalty_Charging> (1)
  0.0000

>  <r_epik_Ionization_Penalty_Neutral> (1)
  0.0000

>  <r_epik_State_Penalty> (1)
  0.0000

>  <r_epik_Charging_Adjusted_Penalty> (1)
0

>  <i_epik_Tot_Q> (1)
0

>  <i_epik_Tot_abs_Q> (1)
0

>  <s_lp_Force_Field> (1)
S-OPLS

>  <r_lp_Energy> (1)
7.1371

>  <b_lp_Chiralities_Consistent> (1)
1

$$$$
