7958_Diisobutyl ketone
                    3D
 Schrodinger Suite 2021-3.
 28 27  0  0  1  0            999 V2000
   -2.1317    1.4640   -0.0340 C   0  0  0  0  0  0
   -0.5991    1.4890   -0.0870 C   0  0  0  0  0  0
   -0.0991    2.4037   -1.2140 C   0  0  0  0  0  0
   -0.0399    0.0675   -0.2386 C   0  0  0  0  0  0
    1.4652   -0.0485   -0.0321 C   0  0  0  0  0  0
    2.1159    0.8463    0.4792 O   0  0  0  0  0  0
    2.1112   -1.3464   -0.5013 C   0  0  0  0  0  0
    3.5295   -1.5855    0.0351 C   0  0  0  0  0  0
    4.1965   -2.7534   -0.7021 C   0  0  0  0  0  0
    3.5153   -1.8238    1.5515 C   0  0  0  0  0  0
   -2.5507    1.0616   -0.9648 H   0  0  0  0  0  0
   -2.5354    2.4730    0.1008 H   0  0  0  0  0  0
   -2.4970    0.8431    0.7919 H   0  0  0  0  0  0
   -0.2172    1.8847    0.8621 H   0  0  0  0  0  0
   -0.4361    2.0364   -2.1920 H   0  0  0  0  0  0
    0.9924    2.4563   -1.2206 H   0  0  0  0  0  0
   -0.4855    3.4209   -1.0911 H   0  0  0  0  0  0
   -0.4996   -0.6082    0.4995 H   0  0  0  0  0  0
   -0.3028   -0.3571   -1.2185 H   0  0  0  0  0  0
    1.4490   -2.1889   -0.2539 H   0  0  0  0  0  0
    2.1181   -1.3000   -1.6015 H   0  0  0  0  0  0
    4.1035   -0.6706   -0.1566 H   0  0  0  0  0  0
    3.6422   -3.6868   -0.5429 H   0  0  0  0  0  0
    5.2188   -2.9111   -0.3420 H   0  0  0  0  0  0
    4.2448   -2.5743   -1.7821 H   0  0  0  0  0  0
    2.9305   -2.7191    1.7996 H   0  0  0  0  0  0
    3.0824   -0.9699    2.0785 H   0  0  0  0  0  0
    4.5309   -1.9758    1.9320 H   0  0  0  0  0  0
  1  2  1  0  0  0
  1 11  1  0  0  0
  1 12  1  0  0  0
  1 13  1  0  0  0
  2  3  1  0  0  0
  2  4  1  0  0  0
  2 14  1  0  0  0
  3 15  1  0  0  0
  3 16  1  0  0  0
  3 17  1  0  0  0
  4  5  1  0  0  0
  4 18  1  0  0  0
  4 19  1  0  0  0
  5  6  2  0  0  0
  5  7  1  0  0  0
  7  8  1  0  0  0
  7 20  1  0  0  0
  7 21  1  0  0  0
  8  9  1  0  0  0
  8 10  1  0  0  0
  8 22  1  0  0  0
  9 23  1  0  0  0
  9 24  1  0  0  0
  9 25  1  0  0  0
 10 26  1  0  0  0
 10 27  1  0  0  0
 10 28  1  0  0  0
M  END
>  <i_m_Spin_multiplicity> (1)
1

>  <s_j_Task> (1)
Single Point

>  <s_j_QM_Method> (1)
DFT(b3lyp-d3)

>  <s_j_QM_Basis> (1)
cc-pvtz(-f)

>  <i_j_Number_of_canonical_orbitals> (1)
390

>  <i_j_Geometry_convergence_category> (1)
0

>  <r_j_Gas_Phase_Energy> (1)
-429.213838283882

>  <r_j_Final_Energy> (1)
-429.213838283882

>  <r_j_HOMO> (1)
-0.251808320166317

>  <r_j_LUMO> (1)
-0.0239190529121

>  <r_j_Polarizability> (1)
111.559530178363

>  <r_j_QM_Dipole_(debye)> (1)
2.26819378515683

>  <r_j_QM_Dipole_X_(debye)> (1)
-1.20918866832616

>  <r_j_QM_Dipole_Y_(debye)> (1)
-1.66685111313093

>  <r_j_QM_Dipole_Z_(debye)> (1)
-0.95088021226119

>  <r_j_Lowest_Frequency_(cm-1)> (1)
58.2385788341151

>  <r_j_Highest_Frequency_(cm-1)> (1)
3072.10612601378

>  <r_j_2nd_Lowest_Frequency_(cm-1)> (1)
85.5211693653991

>  <i_j_Num_Negative_Frequencies> (1)
0

>  <r_j_Zero_Point_Energy_(kcal/mol)> (1)
159.46642829472

>  <r_j_Entropy_(cal/mol/K)_298.15K_1.00E+00atm> (1)
104.388154208513

>  <r_j_Enthalpy_(kcal/mol)_298.15K_1.00E+00atm> (1)
8.0736171901389

>  <r_j_Free_Energy_(kcal/mol)_298.15K_1.00E+00atm> (1)
-23.0497109871292

>  <r_j_Internal_Energy_(kcal/mol)_298.15K_1.00E+00atm> (1)
7.48113160131162

>  <r_j_Heat_Capacity_(cal/mol/K)_298.15K_1.00E+00atm> (1)
45.715417434371

>  <r_j_ln(Q)_298.15K_1.00E+00atm> (1)
38.9034120353075

>  <r_j_Total_Internal_Energy_(au)_298.15K_1.00E+00atm> (1)
-428.947790410698

>  <r_j_Total_Enthalpy_(au)_298.15K_1.00E+00atm> (1)
-428.946846224806

>  <r_j_Total_Free_Energy_(au)_298.15K_1.00E+00atm> (1)
-428.996444405655

>  <r_lp_tautomer_probability> (1)
1

>  <r_epik_Ionization_Penalty> (1)
  0.0000

>  <r_epik_Ionization_Penalty_Charging> (1)
  0.0000

>  <r_epik_Ionization_Penalty_Neutral> (1)
  0.0000

>  <r_epik_State_Penalty> (1)
  0.0000

>  <r_epik_Charging_Adjusted_Penalty> (1)
0

>  <i_epik_Tot_Q> (1)
0

>  <i_epik_Tot_abs_Q> (1)
0

>  <s_lp_Force_Field> (1)
S-OPLS

>  <r_lp_Energy> (1)
-0.504139

>  <b_lp_Chiralities_Consistent> (1)
1

$$$$
