7965_Cyclohexamine
                    3D
 Schrodinger Suite 2021-3.
 21 21  0  0  1  0            999 V2000
   -2.5915   -1.4660    0.0000 C   0  0  0  0  0  0
   -2.0728   -0.7726    1.2685 C   0  0  0  0  0  0
   -0.5331   -0.6933    1.2747 C   0  0  0  0  0  0
   -0.0511   -0.0008    0.0000 C   0  0  0  0  0  0
   -0.5330   -0.6933   -1.2747 C   0  0  0  0  0  0
   -2.0727   -0.7725   -1.2684 C   0  0  0  0  0  0
    1.4905    0.0315    0.0000 N   0  3  1  0  0  0
   -3.6853   -1.4714   -0.0001 H   0  0  0  0  0  0
   -2.2721   -2.5166   -0.0001 H   0  0  0  0  0  0
   -2.4850    0.2425    1.3331 H   0  0  0  0  0  0
   -2.4029   -1.3024    2.1662 H   0  0  0  0  0  0
   -0.1785   -0.1580    2.1642 H   0  0  0  0  0  0
   -0.1176   -1.7107    1.3103 H   0  0  0  0  0  0
   -0.3471    1.0538   -0.0001 H   0  0  0  0  0  0
   -0.1784   -0.1581   -2.1642 H   0  0  0  0  0  0
   -0.1176   -1.7107   -1.3103 H   0  0  0  0  0  0
   -2.4028   -1.3022   -2.1662 H   0  0  0  0  0  0
   -2.4849    0.2427   -1.3329 H   0  0  0  0  0  0
    1.8659   -0.9237    0.0002 H   0  0  0  0  0  0
    1.8582    0.5082    0.8306 H   0  0  0  0  0  0
    1.8582    0.5078   -0.8309 H   0  0  0  0  0  0
  1  6  1  0  0  0
  1  2  1  0  0  0
  1  8  1  0  0  0
  1  9  1  0  0  0
  2  3  1  0  0  0
  2 10  1  0  0  0
  2 11  1  0  0  0
  3  4  1  0  0  0
  3 12  1  0  0  0
  3 13  1  0  0  0
  4  5  1  0  0  0
  4  7  1  0  0  0
  4 14  1  0  0  0
  5  6  1  0  0  0
  5 15  1  0  0  0
  5 16  1  0  0  0
  6 17  1  0  0  0
  6 18  1  0  0  0
  7 19  1  0  0  0
  7 20  1  0  0  0
  7 21  1  0  0  0
M  END
>  <i_m_Spin_multiplicity> (1)
1

>  <s_j_Task> (1)
Single Point

>  <s_j_QM_Method> (1)
DFT(b3lyp-d3)

>  <s_j_QM_Basis> (1)
cc-pvtz(-f)

>  <i_j_Number_of_canonical_orbitals> (1)
285

>  <i_j_Geometry_convergence_category> (1)
0

>  <r_j_Gas_Phase_Energy> (1)
-291.717507329357

>  <r_j_Final_Energy> (1)
-291.717507329357

>  <r_j_HOMO> (1)
-0.464715836990827

>  <r_j_LUMO> (1)
-0.181101454337452

>  <r_j_Polarizability> (1)
74.0146636274374

>  <r_j_QM_Dipole_(debye)> (1)
7.58845502133859

>  <r_j_QM_Dipole_X_(debye)> (1)
7.29540171360264

>  <r_j_QM_Dipole_Y_(debye)> (1)
2.08848352435598

>  <r_j_QM_Dipole_Z_(debye)> (1)
-0.000128593028231284

>  <r_j_Lowest_Frequency_(cm-1)> (1)
176.756886021123

>  <r_j_Highest_Frequency_(cm-1)> (1)
3435.29639857616

>  <r_j_2nd_Lowest_Frequency_(cm-1)> (1)
256.991446773537

>  <i_j_Num_Negative_Frequencies> (1)
0

>  <r_j_Zero_Point_Energy_(kcal/mol)> (1)
126.597301762394

>  <r_j_Entropy_(cal/mol/K)_298.15K_1.00E+00atm> (1)
80.3232679753035

>  <r_j_Enthalpy_(kcal/mol)_298.15K_1.00E+00atm> (1)
4.92183951199635

>  <r_j_Free_Energy_(kcal/mol)_298.15K_1.00E+00atm> (1)
-19.0265428348404

>  <r_j_Internal_Energy_(kcal/mol)_298.15K_1.00E+00atm> (1)
4.32935392316908

>  <r_j_Heat_Capacity_(cal/mol/K)_298.15K_1.00E+00atm> (1)
28.0133546790073

>  <r_j_ln(Q)_298.15K_1.00E+00atm> (1)
32.1130896575902

>  <r_j_Total_Internal_Energy_(au)_298.15K_1.00E+00atm> (1)
-291.50886242128

>  <r_j_Total_Enthalpy_(au)_298.15K_1.00E+00atm> (1)
-291.507918235387

>  <r_j_Total_Free_Energy_(au)_298.15K_1.00E+00atm> (1)
-291.546082412172

>  <r_lp_tautomer_probability> (1)
1

>  <r_epik_Ionization_Penalty> (1)
  0.0002

>  <r_epik_Ionization_Penalty_Charging> (1)
  0.0002

>  <r_epik_Ionization_Penalty_Neutral> (1)
  0.0000

>  <r_epik_State_Penalty> (1)
  0.0000

>  <r_epik_Charging_Adjusted_Penalty> (1)
0.000239768340912458

>  <i_epik_Tot_Q> (1)
1

>  <i_epik_Tot_abs_Q> (1)
1

>  <s_lp_Force_Field> (1)
S-OPLS

>  <r_lp_Energy> (1)
17.158135

>  <b_lp_Chiralities_Consistent> (1)
1

$$$$
