7991_Pentanoic acid
                    3D
 Schrodinger Suite 2021-3.
 16 15  0  0  1  0            999 V2000
   -0.5924    1.4667   -0.0830 C   0  0  0  0  0  0
   -0.0364    0.0434    0.0491 C   0  0  0  0  0  0
    1.4958   -0.0104    0.0732 C   0  0  0  0  0  0
    2.0848   -1.4158    0.1899 C   0  0  0  0  0  0
    3.6485   -1.4736   -0.0319 C   0  0  0  0  0  0
    4.2250   -2.4408    0.5218 O   0  0  0  0  0  0
    4.1227   -0.5651   -0.7633 O   0  5  0  0  0  0
   -1.6899    1.4867   -0.1093 H   0  0  0  0  0  0
   -0.2261    1.9429   -1.0007 H   0  0  0  0  0  0
   -0.2674    2.0929    0.7572 H   0  0  0  0  0  0
   -0.4398   -0.4212    0.9615 H   0  0  0  0  0  0
   -0.4064   -0.5701   -0.7858 H   0  0  0  0  0  0
    1.9152    0.4398   -0.8345 H   0  0  0  0  0  0
    1.8643    0.6104    0.9043 H   0  0  0  0  0  0
    1.8471   -1.8725    1.1599 H   0  0  0  0  0  0
    1.6237   -2.0641   -0.5739 H   0  0  0  0  0  0
  1  2  1  0  0  0
  1  8  1  0  0  0
  1  9  1  0  0  0
  1 10  1  0  0  0
  2  3  1  0  0  0
  2 11  1  0  0  0
  2 12  1  0  0  0
  3  4  1  0  0  0
  3 13  1  0  0  0
  3 14  1  0  0  0
  4  5  1  0  0  0
  4 15  1  0  0  0
  4 16  1  0  0  0
  5  6  2  0  0  0
  5  7  1  0  0  0
M  END
>  <i_m_Spin_multiplicity> (1)
1

>  <s_j_Task> (1)
Single Point

>  <s_j_QM_Method> (1)
DFT(b3lyp-d3)

>  <s_j_QM_Basis> (1)
cc-pvtz(-f)

>  <i_j_Number_of_canonical_orbitals> (1)
241

>  <i_j_Geometry_convergence_category> (1)
3

>  <r_j_Gas_Phase_Energy> (1)
-346.595060537841

>  <r_j_Final_Energy> (1)
-346.595060537841

>  <r_j_HOMO> (1)
-0.0361082303315319

>  <r_j_LUMO> (1)
0.146737551504931

>  <r_j_Polarizability> (1)
72.2389013485425

>  <r_j_QM_Dipole_(debye)> (1)
8.77524585904113

>  <r_j_QM_Dipole_X_(debye)> (1)
-8.08710453869428

>  <r_j_QM_Dipole_Y_(debye)> (1)
3.38430876572496

>  <r_j_QM_Dipole_Z_(debye)> (1)
0.387471605522288

>  <r_j_Lowest_Frequency_(cm-1)> (1)
88.3814842455998

>  <r_j_Highest_Frequency_(cm-1)> (1)
3027.86869472023

>  <r_j_2nd_Lowest_Frequency_(cm-1)> (1)
121.610841767595

>  <i_j_Num_Negative_Frequencies> (1)
0

>  <r_j_Zero_Point_Energy_(kcal/mol)> (1)
83.5566931439644

>  <r_j_Entropy_(cal/mol/K)_298.15K_1.00E+00atm> (1)
86.1613354621408

>  <r_j_Enthalpy_(kcal/mol)_298.15K_1.00E+00atm> (1)
5.44376938234741

>  <r_j_Free_Energy_(kcal/mol)_298.15K_1.00E+00atm> (1)
-20.2452327856899

>  <r_j_Internal_Energy_(kcal/mol)_298.15K_1.00E+00atm> (1)
4.85128379352013

>  <r_j_Heat_Capacity_(cal/mol/K)_298.15K_1.00E+00atm> (1)
27.1797297413398

>  <r_j_ln(Q)_298.15K_1.00E+00atm> (1)
34.1700003636576

>  <r_j_Total_Internal_Energy_(au)_298.15K_1.00E+00atm> (1)
-346.454173457782

>  <r_j_Total_Enthalpy_(au)_298.15K_1.00E+00atm> (1)
-346.45322927189

>  <r_j_Total_Free_Energy_(au)_298.15K_1.00E+00atm> (1)
-346.494167302941

>  <r_epik_Ionization_Penalty> (1)
  0.0048

>  <r_epik_Ionization_Penalty_Charging> (1)
  0.0048

>  <r_epik_Ionization_Penalty_Neutral> (1)
  0.0000

>  <r_epik_State_Penalty> (1)
  0.0035

>  <r_epik_Charging_Adjusted_Penalty> (1)
0.00828125

>  <i_epik_Tot_Q> (1)
-1

>  <i_epik_Tot_abs_Q> (1)
1

>  <s_lp_Force_Field> (1)
S-OPLS

>  <r_lp_Energy> (1)
5.81781

>  <b_lp_Chiralities_Consistent> (1)
1

$$$$
