8004_1-pentene
                    3D
 Schrodinger Suite 2021-3.
 15 14  0  0  1  0            999 V2000
   -0.5538    1.5100    0.0877 C   0  0  0  0  0  0
   -0.0805    0.0541    0.0654 C   0  0  0  0  0  0
    1.4407   -0.0725   -0.1418 C   0  0  0  0  0  0
    1.9147   -1.4989   -0.1184 C   0  0  0  0  0  0
    2.5103   -2.1322   -1.1288 C   0  0  0  0  0  0
   -1.6369    1.5777    0.2315 H   0  0  0  0  0  0
   -0.3095    2.0183   -0.8521 H   0  0  0  0  0  0
   -0.0731    2.0688    0.8991 H   0  0  0  0  0  0
   -0.3593   -0.4405    1.0056 H   0  0  0  0  0  0
   -0.5945   -0.4958   -0.7329 H   0  0  0  0  0  0
    1.7230    0.4004   -1.0913 H   0  0  0  0  0  0
    1.9485    0.4949    0.6529 H   0  0  0  0  0  0
    1.7280   -2.0416    0.8099 H   0  0  0  0  0  0
    2.7124   -1.6322   -2.0734 H   0  0  0  0  0  0
    2.8195   -3.1705   -1.0521 H   0  0  0  0  0  0
  1  2  1  0  0  0
  1  6  1  0  0  0
  1  7  1  0  0  0
  1  8  1  0  0  0
  2  3  1  0  0  0
  2  9  1  0  0  0
  2 10  1  0  0  0
  3  4  1  0  0  0
  3 11  1  0  0  0
  3 12  1  0  0  0
  4  5  2  0  0  0
  4 13  1  0  0  0
  5 14  1  0  0  0
  5 15  1  0  0  0
M  END
>  <i_m_Spin_multiplicity> (1)
1

>  <s_j_Task> (1)
Single Point

>  <s_j_QM_Method> (1)
DFT(b3lyp-d3)

>  <s_j_QM_Basis> (1)
cc-pvtz(-f)

>  <i_j_Number_of_canonical_orbitals> (1)
204

>  <i_j_Geometry_convergence_category> (1)
0

>  <r_j_Gas_Phase_Energy> (1)
-196.614646875079

>  <r_j_Final_Energy> (1)
-196.614646875079

>  <r_j_HOMO> (1)
-0.264200713990324

>  <r_j_LUMO> (1)
0.00331631445816042

>  <r_j_Polarizability> (1)
62.2198097107903

>  <r_j_QM_Dipole_(debye)> (1)
0.402739084331637

>  <r_j_QM_Dipole_X_(debye)> (1)
-0.249769859667248

>  <r_j_QM_Dipole_Y_(debye)> (1)
0.256534400806116

>  <r_j_QM_Dipole_Z_(debye)> (1)
0.18440143289339

>  <r_j_Lowest_Frequency_(cm-1)> (1)
128.773461309533

>  <r_j_Highest_Frequency_(cm-1)> (1)
3167.73613992723

>  <r_j_2nd_Lowest_Frequency_(cm-1)> (1)
151.327299165741

>  <i_j_Num_Negative_Frequencies> (1)
0

>  <r_j_Zero_Point_Energy_(kcal/mol)> (1)
85.6837052421898

>  <r_j_Entropy_(cal/mol/K)_298.15K_1.00E+00atm> (1)
76.4377265516033

>  <r_j_Enthalpy_(kcal/mol)_298.15K_1.00E+00atm> (1)
4.49714317725213

>  <r_j_Free_Energy_(kcal/mol)_298.15K_1.00E+00atm> (1)
-18.2927649941084

>  <r_j_Internal_Energy_(kcal/mol)_298.15K_1.00E+00atm> (1)
3.90465758842485

>  <r_j_Heat_Capacity_(cal/mol/K)_298.15K_1.00E+00atm> (1)
22.0854444679461

>  <r_j_ln(Q)_298.15K_1.00E+00atm> (1)
30.8746159215718

>  <r_j_Total_Internal_Energy_(au)_298.15K_1.00E+00atm> (1)
-196.471878730352

>  <r_j_Total_Enthalpy_(au)_298.15K_1.00E+00atm> (1)
-196.470934544459

>  <r_j_Total_Free_Energy_(au)_298.15K_1.00E+00atm> (1)
-196.50725257512

>  <r_lp_tautomer_probability> (1)
1

>  <r_epik_Ionization_Penalty> (1)
  0.0000

>  <r_epik_Ionization_Penalty_Charging> (1)
  0.0000

>  <r_epik_Ionization_Penalty_Neutral> (1)
  0.0000

>  <r_epik_State_Penalty> (1)
  0.0000

>  <r_epik_Charging_Adjusted_Penalty> (1)
0

>  <i_epik_Tot_Q> (1)
0

>  <i_epik_Tot_abs_Q> (1)
0

>  <s_lp_Force_Field> (1)
S-OPLS

>  <r_lp_Energy> (1)
-1.209818

>  <b_lp_Chiralities_Consistent> (1)
1

$$$$
