8019_2-methoxyethanol
                    3D
 Schrodinger Suite 2021-3.
 13 12  0  0  1  0            999 V2000
   -0.5833    1.2535   -0.0001 C   0  0  0  0  0  0
   -0.0082   -0.0363    0.0002 O   0  0  0  0  0  0
    1.4061   -0.0053    0.0001 C   0  0  0  0  0  0
    1.8963   -1.4440   -0.0001 C   0  0  0  0  0  0
    3.3177   -1.3948   -0.0001 O   0  0  0  0  0  0
   -1.6688    1.1263    0.0000 H   0  0  0  0  0  0
   -0.2937    1.8322   -0.8921 H   0  0  0  0  0  0
   -0.2936    1.8327    0.8915 H   0  0  0  0  0  0
    1.7980    0.5166   -0.8885 H   0  0  0  0  0  0
    1.7981    0.5164    0.8888 H   0  0  0  0  0  0
    1.4961   -1.9562    0.8883 H   0  0  0  0  0  0
    1.4961   -1.9560   -0.8886 H   0  0  0  0  0  0
    3.6488   -2.3009   -0.0002 H   0  0  0  0  0  0
  1  2  1  0  0  0
  1  6  1  0  0  0
  1  7  1  0  0  0
  1  8  1  0  0  0
  2  3  1  0  0  0
  3  4  1  0  0  0
  3  9  1  0  0  0
  3 10  1  0  0  0
  4  5  1  0  0  0
  4 11  1  0  0  0
  4 12  1  0  0  0
  5 13  1  0  0  0
M  END
>  <i_m_Spin_multiplicity> (1)
1

>  <s_j_Task> (1)
Single Point

>  <s_j_QM_Method> (1)
DFT(b3lyp-d3)

>  <s_j_QM_Basis> (1)
cc-pvtz(-f)

>  <i_j_Number_of_canonical_orbitals> (1)
187

>  <i_j_Geometry_convergence_category> (1)
0

>  <r_j_Gas_Phase_Energy> (1)
-269.662692015276

>  <r_j_Final_Energy> (1)
-269.662692015276

>  <r_j_HOMO> (1)
-0.261087998269034

>  <r_j_LUMO> (1)
0.0169079110600531

>  <r_j_Polarizability> (1)
47.4852161909512

>  <r_j_QM_Dipole_(debye)> (1)
0.366335760474941

>  <r_j_QM_Dipole_X_(debye)> (1)
-0.150129816870922

>  <r_j_QM_Dipole_Y_(debye)> (1)
-0.334159676240082

>  <r_j_QM_Dipole_Z_(debye)> (1)
-0.000488123119617815

>  <r_j_Lowest_Frequency_(cm-1)> (1)
118.017778609167

>  <r_j_Highest_Frequency_(cm-1)> (1)
3784.19115160779

>  <r_j_2nd_Lowest_Frequency_(cm-1)> (1)
151.851665404266

>  <i_j_Num_Negative_Frequencies> (1)
0

>  <r_j_Zero_Point_Energy_(kcal/mol)> (1)
70.8060657535799

>  <r_j_Entropy_(cal/mol/K)_298.15K_1.00E+00atm> (1)
77.3957481322248

>  <r_j_Enthalpy_(kcal/mol)_298.15K_1.00E+00atm> (1)
4.58798034488461

>  <r_j_Free_Energy_(kcal/mol)_298.15K_1.00E+00atm> (1)
-18.4875619607382

>  <r_j_Internal_Energy_(kcal/mol)_298.15K_1.00E+00atm> (1)
3.99549475605734

>  <r_j_Heat_Capacity_(cal/mol/K)_298.15K_1.00E+00atm> (1)
21.1331256622131

>  <r_j_ln(Q)_298.15K_1.00E+00atm> (1)
31.2033951700517

>  <r_j_Total_Internal_Energy_(au)_298.15K_1.00E+00atm> (1)
-269.543488140138

>  <r_j_Total_Enthalpy_(au)_298.15K_1.00E+00atm> (1)
-269.542543954246

>  <r_j_Total_Free_Energy_(au)_298.15K_1.00E+00atm> (1)
-269.579317171876

>  <r_lp_tautomer_probability> (1)
1

>  <r_epik_Ionization_Penalty> (1)
  0.0000

>  <r_epik_Ionization_Penalty_Charging> (1)
  0.0000

>  <r_epik_Ionization_Penalty_Neutral> (1)
  0.0000

>  <r_epik_State_Penalty> (1)
  0.0000

>  <r_epik_Charging_Adjusted_Penalty> (1)
0

>  <i_epik_Tot_Q> (1)
0

>  <i_epik_Tot_abs_Q> (1)
0

>  <s_lp_Force_Field> (1)
S-OPLS

>  <r_lp_Energy> (1)
3.74965

>  <b_lp_Chiralities_Consistent> (1)
1

$$$$
