8021_Diethylamine
                    3D
 Schrodinger Suite 2021-3.
 17 16  0  0  1  0            999 V2000
   -0.5595    1.4800    0.0000 C   0  0  0  0  0  0
   -0.0905    0.0335    0.0000 C   0  0  0  0  0  0
    1.4275   -0.0460    0.0000 N   0  3  1  0  0  0
    2.0085   -1.4507    0.0000 C   0  0  0  0  0  0
    3.5286   -1.4107    0.0000 C   0  0  0  0  0  0
   -1.6522    1.4962   -0.0001 H   0  0  0  0  0  0
   -0.2218    2.0180   -0.8915 H   0  0  0  0  0  0
   -0.2219    2.0178    0.8916 H   0  0  0  0  0  0
   -0.4229   -0.5110    0.8869 H   0  0  0  0  0  0
   -0.4229   -0.5109   -0.8870 H   0  0  0  0  0  0
    1.7872    0.4628   -0.8157 H   0  0  0  0  0  0
    1.6060   -1.9455    0.8870 H   0  0  0  0  0  0
    1.6059   -1.9455   -0.8869 H   0  0  0  0  0  0
    3.9080   -2.4355    0.0000 H   0  0  0  0  0  0
    3.9232   -0.9130    0.8915 H   0  0  0  0  0  0
    3.9232   -0.9132   -0.8917 H   0  0  0  0  0  0
    1.7872    0.4628    0.8158 H   0  0  0  0  0  0
  1  2  1  0  0  0
  1  6  1  0  0  0
  1  7  1  0  0  0
  1  8  1  0  0  0
  2  3  1  0  0  0
  2  9  1  0  0  0
  2 10  1  0  0  0
  3  4  1  0  0  0
  3 11  1  0  0  0
  3 17  1  0  0  0
  4  5  1  0  0  0
  4 12  1  0  0  0
  4 13  1  0  0  0
  5 14  1  0  0  0
  5 15  1  0  0  0
  5 16  1  0  0  0
M  END
>  <i_m_Spin_multiplicity> (1)
1

>  <s_j_Task> (1)
Single Point

>  <s_j_QM_Method> (1)
DFT(b3lyp-d3)

>  <s_j_QM_Basis> (1)
cc-pvtz(-f)

>  <i_j_Number_of_canonical_orbitals> (1)
223

>  <i_j_Geometry_convergence_category> (1)
0

>  <r_j_Gas_Phase_Energy> (1)
-214.264243480735

>  <r_j_Final_Energy> (1)
-214.264243480735

>  <r_j_HOMO> (1)
-0.534829269566157

>  <r_j_LUMO> (1)
-0.170474136561871

>  <r_j_Polarizability> (1)
55.1862445146068

>  <r_j_QM_Dipole_(debye)> (1)
0.507328051143767

>  <r_j_QM_Dipole_X_(debye)> (1)
0.292877032912513

>  <r_j_QM_Dipole_Y_(debye)> (1)
0.414252086949415

>  <r_j_QM_Dipole_Z_(debye)> (1)
5.93948583355244e-05

>  <r_j_Lowest_Frequency_(cm-1)> (1)
138.676102121717

>  <r_j_Highest_Frequency_(cm-1)> (1)
3407.78129373765

>  <r_j_2nd_Lowest_Frequency_(cm-1)> (1)
154.645593571313

>  <i_j_Num_Negative_Frequencies> (1)
0

>  <r_j_Zero_Point_Energy_(kcal/mol)> (1)
103.092824962453

>  <r_j_Entropy_(cal/mol/K)_298.15K_1.00E+00atm> (1)
78.4425208636485

>  <r_j_Enthalpy_(kcal/mol)_298.15K_1.00E+00atm> (1)
4.77861857846529

>  <r_j_Free_Energy_(kcal/mol)_298.15K_1.00E+00atm> (1)
-18.6090190170315

>  <r_j_Internal_Energy_(kcal/mol)_298.15K_1.00E+00atm> (1)
4.18613298963801

>  <r_j_Heat_Capacity_(cal/mol/K)_298.15K_1.00E+00atm> (1)
23.7091219861694

>  <r_j_ln(Q)_298.15K_1.00E+00atm> (1)
31.408390968403

>  <r_j_Total_Internal_Energy_(au)_298.15K_1.00E+00atm> (1)
-214.093283578007

>  <r_j_Total_Enthalpy_(au)_298.15K_1.00E+00atm> (1)
-214.092339392115

>  <r_j_Total_Free_Energy_(au)_298.15K_1.00E+00atm> (1)
-214.129609965251

>  <r_lp_tautomer_probability> (1)
1

>  <r_epik_Ionization_Penalty> (1)
  0.0003

>  <r_epik_Ionization_Penalty_Charging> (1)
  0.0003

>  <r_epik_Ionization_Penalty_Neutral> (1)
  0.0000

>  <r_epik_State_Penalty> (1)
  0.0000

>  <r_epik_Charging_Adjusted_Penalty> (1)
0.000270756

>  <i_epik_Tot_Q> (1)
1

>  <i_epik_Tot_abs_Q> (1)
1

>  <s_lp_Force_Field> (1)
S-OPLS

>  <r_lp_Energy> (1)
7.4318

>  <b_lp_Chiralities_Consistent> (1)
1

$$$$
