8028_Tetrahydrofuran
                    3D
 Schrodinger Suite 2021-3.
 13 13  0  0  1  0            999 V2000
  -11.3493    4.3713    1.1938 C   0  0  0  0  0  0
  -10.9985    5.8744    1.3792 C   0  0  0  0  0  0
   -9.4817    5.9226    1.0903 C   0  0  0  0  0  0
   -9.2098    4.7900    0.2717 O   0  0  0  0  0  0
   -9.9928    3.7342    0.8186 C   0  0  0  0  0  0
  -12.0751    4.2401    0.3868 H   0  0  0  0  0  0
  -11.7731    3.9215    2.0961 H   0  0  0  0  0  0
  -11.5486    6.4911    0.6635 H   0  0  0  0  0  0
  -11.2326    6.2428    2.3820 H   0  0  0  0  0  0
   -9.1600    6.8158    0.5483 H   0  0  0  0  0  0
   -8.9081    5.8623    2.0312 H   0  0  0  0  0  0
   -9.5019    3.3173    1.7148 H   0  0  0  0  0  0
  -10.0652    2.9435    0.0672 H   0  0  0  0  0  0
  1  5  1  0  0  0
  1  2  1  0  0  0
  1  6  1  0  0  0
  1  7  1  0  0  0
  2  3  1  0  0  0
  2  8  1  0  0  0
  2  9  1  0  0  0
  3  4  1  0  0  0
  3 10  1  0  0  0
  3 11  1  0  0  0
  4  5  1  0  0  0
  5 12  1  0  0  0
  5 13  1  0  0  0
M  END
>  <i_m_Spin_multiplicity> (1)
1

>  <s_j_Task> (1)
Single Point

>  <s_j_QM_Method> (1)
DFT(b3lyp-d3)

>  <s_j_QM_Basis> (1)
cc-pvtz(-f)

>  <i_j_Number_of_canonical_orbitals> (1)
186

>  <i_j_Geometry_convergence_category> (1)
0

>  <r_j_Gas_Phase_Energy> (1)
-232.538944170953

>  <r_j_Final_Energy> (1)
-232.538944170953

>  <r_j_HOMO> (1)
-0.235962269317911

>  <r_j_LUMO> (1)
0.0490696908596065

>  <r_j_Polarizability> (1)
49.6691568271976

>  <r_j_QM_Dipole_(debye)> (1)
1.53490469900635

>  <r_j_QM_Dipole_X_(debye)> (1)
-1.12082500244531

>  <r_j_QM_Dipole_Y_(debye)> (1)
0.132732080104804

>  <r_j_QM_Dipole_Z_(debye)> (1)
1.04022398733941

>  <r_j_Lowest_Frequency_(cm-1)> (1)
129.394864371496

>  <r_j_Highest_Frequency_(cm-1)> (1)
3067.31343832331

>  <r_j_2nd_Lowest_Frequency_(cm-1)> (1)
303.779747189236

>  <i_j_Num_Negative_Frequencies> (1)
0

>  <r_j_Zero_Point_Energy_(kcal/mol)> (1)
73.0008177528877

>  <r_j_Entropy_(cal/mol/K)_298.15K_1.00E+00atm> (1)
70.0291505763354

>  <r_j_Enthalpy_(kcal/mol)_298.15K_1.00E+00atm> (1)
3.5419539458456

>  <r_j_Free_Energy_(kcal/mol)_298.15K_1.00E+00atm> (1)
-17.3372372984888

>  <r_j_Internal_Energy_(kcal/mol)_298.15K_1.00E+00atm> (1)
2.94946835701833

>  <r_j_Heat_Capacity_(cal/mol/K)_298.15K_1.00E+00atm> (1)
16.6886263804706

>  <r_j_ln(Q)_298.15K_1.00E+00atm> (1)
29.2618717238422

>  <r_j_Total_Internal_Energy_(au)_298.15K_1.00E+00atm> (1)
-232.417909685035

>  <r_j_Total_Enthalpy_(au)_298.15K_1.00E+00atm> (1)
-232.416965499143

>  <r_j_Total_Free_Energy_(au)_298.15K_1.00E+00atm> (1)
-232.450238608542

>  <r_lp_tautomer_probability> (1)
1

>  <r_epik_Ionization_Penalty> (1)
  0.0000

>  <r_epik_Ionization_Penalty_Charging> (1)
  0.0000

>  <r_epik_Ionization_Penalty_Neutral> (1)
  0.0000

>  <r_epik_State_Penalty> (1)
  0.0000

>  <r_epik_Charging_Adjusted_Penalty> (1)
0

>  <i_epik_Tot_Q> (1)
0

>  <i_epik_Tot_abs_Q> (1)
0

>  <s_lp_Force_Field> (1)
S-OPLS

>  <r_lp_Energy> (1)
3.917403

>  <b_lp_Chiralities_Consistent> (1)
1

$$$$
