8054_Ethylene glycol methyl ether acetate
                    3D
 Schrodinger Suite 2021-3.
 18 17  0  0  1  0            999 V2000
   -2.3397    2.7523   -0.0001 C   0  0  0  0  0  0
   -1.9071    1.3044   -0.0001 C   0  0  0  0  0  0
   -2.6602    0.3563   -0.0004 O   0  0  0  0  0  0
   -0.5584    1.1873    0.0003 O   0  0  0  0  0  0
   -0.0527   -0.1625    0.0003 C   0  0  0  0  0  0
    1.4613   -0.0497    0.0002 C   0  0  0  0  0  0
    1.9702   -1.3672    0.0000 O   0  0  0  0  0  0
    3.3833   -1.4090   -0.0002 C   0  0  0  0  0  0
   -1.4898    3.4349    0.0002 H   0  0  0  0  0  0
   -2.9622    2.9318    0.8806 H   0  0  0  0  0  0
   -2.9617    2.9320   -0.8812 H   0  0  0  0  0  0
   -0.4093   -0.6984    0.8847 H   0  0  0  0  0  0
   -0.4094   -0.6984   -0.8840 H   0  0  0  0  0  0
    1.7946    0.5124   -0.8881 H   0  0  0  0  0  0
    1.7948    0.5122    0.8886 H   0  0  0  0  0  0
    3.6763   -2.4615   -0.0004 H   0  0  0  0  0  0
    3.8074   -0.9214    0.8920 H   0  0  0  0  0  0
    3.8072   -0.9211   -0.8924 H   0  0  0  0  0  0
  1  2  1  0  0  0
  1  9  1  0  0  0
  1 10  1  0  0  0
  1 11  1  0  0  0
  2  3  2  0  0  0
  2  4  1  0  0  0
  4  5  1  0  0  0
  5  6  1  0  0  0
  5 12  1  0  0  0
  5 13  1  0  0  0
  6  7  1  0  0  0
  6 14  1  0  0  0
  6 15  1  0  0  0
  7  8  1  0  0  0
  8 16  1  0  0  0
  8 17  1  0  0  0
  8 18  1  0  0  0
M  END
>  <i_m_Spin_multiplicity> (1)
1

>  <s_j_Task> (1)
Single Point

>  <s_j_QM_Method> (1)
DFT(b3lyp-d3)

>  <s_j_QM_Basis> (1)
cc-pvtz(-f)

>  <i_j_Number_of_canonical_orbitals> (1)
274

>  <i_j_Geometry_convergence_category> (1)
3

>  <r_j_Gas_Phase_Energy> (1)
-422.383786519969

>  <r_j_Final_Energy> (1)
-422.383786519969

>  <r_j_HOMO> (1)
-0.275298261869019

>  <r_j_LUMO> (1)
0.00764015025325756

>  <r_j_Polarizability> (1)
72.9997457905516

>  <r_j_QM_Dipole_(debye)> (1)
2.97904095124279

>  <r_j_QM_Dipole_X_(debye)> (1)
2.30784081280115

>  <r_j_QM_Dipole_Y_(debye)> (1)
1.88376102469267

>  <r_j_QM_Dipole_Z_(debye)> (1)
0.000416892904529212

>  <r_j_Lowest_Frequency_(cm-1)> (1)
65.5162853800639

>  <r_j_Highest_Frequency_(cm-1)> (1)
3110.74807650305

>  <r_j_2nd_Lowest_Frequency_(cm-1)> (1)
120.081883405982

>  <i_j_Num_Negative_Frequencies> (1)
0

>  <r_j_Zero_Point_Energy_(kcal/mol)> (1)
94.6244583048312

>  <r_j_Entropy_(cal/mol/K)_298.15K_1.00E+00atm> (1)
93.6168785342807

>  <r_j_Enthalpy_(kcal/mol)_298.15K_1.00E+00atm> (1)
6.40770730999008

>  <r_j_Free_Energy_(kcal/mol)_298.15K_1.00E+00atm> (1)
-21.5041650250057

>  <r_j_Internal_Energy_(kcal/mol)_298.15K_1.00E+00atm> (1)
5.81522172116281

>  <r_j_Heat_Capacity_(cal/mol/K)_298.15K_1.00E+00atm> (1)
31.9047061616177

>  <r_j_ln(Q)_298.15K_1.00E+00atm> (1)
36.2948321959519

>  <r_j_Total_Internal_Energy_(au)_298.15K_1.00E+00atm> (1)
-422.223725700447

>  <r_j_Total_Enthalpy_(au)_298.15K_1.00E+00atm> (1)
-422.222781514554

>  <r_j_Total_Free_Energy_(au)_298.15K_1.00E+00atm> (1)
-422.267261914723

>  <r_lp_tautomer_probability> (1)
1

>  <r_epik_Ionization_Penalty> (1)
  0.0000

>  <r_epik_Ionization_Penalty_Charging> (1)
  0.0000

>  <r_epik_Ionization_Penalty_Neutral> (1)
  0.0000

>  <r_epik_State_Penalty> (1)
  0.0000

>  <r_epik_Charging_Adjusted_Penalty> (1)
0

>  <i_epik_Tot_Q> (1)
0

>  <i_epik_Tot_abs_Q> (1)
0

>  <s_lp_Force_Field> (1)
S-OPLS

>  <r_lp_Energy> (1)
1.09066

>  <b_lp_Chiralities_Consistent> (1)
1

>  <s_epik_Chemistry_Notes> (1)
This compound has an ester and may undergo hydrolysis at high or low pH.

$$$$
