8079_Cyclohexene
                    3D
 Schrodinger Suite 2021-3.
 16 16  0  0  1  0            999 V2000
   10.9480    2.8741    1.0185 C   0  0  0  0  0  0
   12.1447    2.0225    0.5732 C   0  0  0  0  0  0
   11.9237    0.5446    0.9337 C   0  0  0  0  0  0
   10.5286    0.0838    0.5875 C   0  0  0  0  0  0
    9.5275    0.9184    0.2919 C   0  0  0  0  0  0
    9.6639    2.4217    0.3047 C   0  0  0  0  0  0
   11.1340    3.9372    0.8286 H   0  0  0  0  0  0
   10.8145    2.7630    2.1030 H   0  0  0  0  0  0
   12.2624    2.1133   -0.5149 H   0  0  0  0  0  0
   13.0734    2.3891    1.0249 H   0  0  0  0  0  0
   12.6609   -0.0866    0.4199 H   0  0  0  0  0  0
   12.1026    0.3887    2.0090 H   0  0  0  0  0  0
   10.3500   -0.9905    0.5800 H   0  0  0  0  0  0
    8.5518    0.5124    0.0289 H   0  0  0  0  0  0
    8.7839    2.8698    0.7847 H   0  0  0  0  0  0
    9.6566    2.7971   -0.7304 H   0  0  0  0  0  0
  1  6  1  0  0  0
  1  2  1  0  0  0
  1  7  1  0  0  0
  1  8  1  0  0  0
  2  3  1  0  0  0
  2  9  1  0  0  0
  2 10  1  0  0  0
  3  4  1  0  0  0
  3 11  1  0  0  0
  3 12  1  0  0  0
  4  5  2  0  0  0
  4 13  1  0  0  0
  5  6  1  0  0  0
  5 14  1  0  0  0
  6 15  1  0  0  0
  6 16  1  0  0  0
M  END
>  <i_m_Spin_multiplicity> (1)
1

>  <s_j_Task> (1)
Single Point

>  <s_j_QM_Method> (1)
DFT(b3lyp-d3)

>  <s_j_QM_Basis> (1)
cc-pvtz(-f)

>  <i_j_Number_of_canonical_orbitals> (1)
227

>  <i_j_Geometry_convergence_category> (1)
0

>  <r_j_Gas_Phase_Energy> (1)
-234.737075107213

>  <r_j_Final_Energy> (1)
-234.737075107213

>  <r_j_HOMO> (1)
-0.240206688103634

>  <r_j_LUMO> (1)
0.0186158365686119

>  <r_j_Polarizability> (1)
67.6244972590125

>  <r_j_QM_Dipole_(debye)> (1)
0.313012841923526

>  <r_j_QM_Dipole_X_(debye)> (1)
0.190682445440101

>  <r_j_QM_Dipole_Y_(debye)> (1)
0.244173460239541

>  <r_j_QM_Dipole_Z_(debye)> (1)
0.0446829444494706

>  <r_j_Lowest_Frequency_(cm-1)> (1)
203.983381553032

>  <r_j_Highest_Frequency_(cm-1)> (1)
3108.25519665156

>  <r_j_2nd_Lowest_Frequency_(cm-1)> (1)
304.151067726413

>  <i_j_Num_Negative_Frequencies> (1)
0

>  <r_j_Zero_Point_Energy_(kcal/mol)> (1)
91.3090640262274

>  <r_j_Entropy_(cal/mol/K)_298.15K_1.00E+00atm> (1)
73.1377123336229

>  <r_j_Enthalpy_(kcal/mol)_298.15K_1.00E+00atm> (1)
3.95443555271808

>  <r_j_Free_Energy_(kcal/mol)_298.15K_1.00E+00atm> (1)
-17.8515733795516

>  <r_j_Internal_Energy_(kcal/mol)_298.15K_1.00E+00atm> (1)
3.36194996389081

>  <r_j_Heat_Capacity_(cal/mol/K)_298.15K_1.00E+00atm> (1)
21.1493899306177

>  <r_j_ln(Q)_298.15K_1.00E+00atm> (1)
30.1299706122571

>  <r_j_Total_Internal_Energy_(au)_298.15K_1.00E+00atm> (1)
-234.586207242238

>  <r_j_Total_Enthalpy_(au)_298.15K_1.00E+00atm> (1)
-234.585263056346

>  <r_j_Total_Free_Energy_(au)_298.15K_1.00E+00atm> (1)
-234.620013143755

>  <r_lp_tautomer_probability> (1)
1

>  <r_epik_Ionization_Penalty> (1)
  0.0000

>  <r_epik_Ionization_Penalty_Charging> (1)
  0.0000

>  <r_epik_Ionization_Penalty_Neutral> (1)
  0.0000

>  <r_epik_State_Penalty> (1)
  0.0000

>  <r_epik_Charging_Adjusted_Penalty> (1)
0

>  <i_epik_Tot_Q> (1)
0

>  <i_epik_Tot_abs_Q> (1)
0

>  <s_lp_Force_Field> (1)
S-OPLS

>  <r_lp_Energy> (1)
-0.612887

>  <b_lp_Chiralities_Consistent> (1)
1

$$$$
