8094_Heptanoic acid
                    3D
 Schrodinger Suite 2021-3.
 22 21  0  0  1  0            999 V2000
   -2.1309    1.5123    0.0627 C   0  0  0  0  0  0
   -0.6012    1.4654   -0.0142 C   0  0  0  0  0  0
   -0.0360    0.0402   -0.0374 C   0  0  0  0  0  0
    1.4949   -0.0200   -0.1117 C   0  0  0  0  0  0
    2.0591   -1.4453   -0.1109 C   0  0  0  0  0  0
    3.5842   -1.5277   -0.1698 C   0  0  0  0  0  0
    4.1529   -2.9792    0.0880 C   0  0  0  0  0  0
    5.2743   -3.2063   -0.4266 O   0  0  0  0  0  0
    3.4306   -3.7202    0.8052 O   0  5  0  0  0  0
   -2.5102    2.5411    0.0801 H   0  0  0  0  0  0
   -2.4936    1.0072    0.9660 H   0  0  0  0  0  0
   -2.5828    1.0043   -0.7979 H   0  0  0  0  0  0
   -0.2623    2.0036   -0.9108 H   0  0  0  0  0  0
   -0.1749    2.0085    0.8412 H   0  0  0  0  0  0
   -0.3750   -0.4989    0.8594 H   0  0  0  0  0  0
   -0.4636   -0.5043   -0.8926 H   0  0  0  0  0  0
    1.8314    0.5156   -1.0133 H   0  0  0  0  0  0
    1.9166    0.5374    0.7392 H   0  0  0  0  0  0
    1.7440   -1.9892    0.7876 H   0  0  0  0  0  0
    1.6309   -2.0031   -0.9576 H   0  0  0  0  0  0
    3.9707   -1.1584   -1.1290 H   0  0  0  0  0  0
    4.0111   -0.8699    0.6057 H   0  0  0  0  0  0
  1  2  1  0  0  0
  1 10  1  0  0  0
  1 11  1  0  0  0
  1 12  1  0  0  0
  2  3  1  0  0  0
  2 13  1  0  0  0
  2 14  1  0  0  0
  3  4  1  0  0  0
  3 15  1  0  0  0
  3 16  1  0  0  0
  4  5  1  0  0  0
  4 17  1  0  0  0
  4 18  1  0  0  0
  5  6  1  0  0  0
  5 19  1  0  0  0
  5 20  1  0  0  0
  6  7  1  0  0  0
  6 21  1  0  0  0
  6 22  1  0  0  0
  7  8  2  0  0  0
  7  9  1  0  0  0
M  END
>  <i_m_Spin_multiplicity> (1)
1

>  <s_j_Task> (1)
Single Point

>  <s_j_QM_Method> (1)
DFT(b3lyp-d3)

>  <s_j_QM_Basis> (1)
cc-pvtz(-f)

>  <i_j_Number_of_canonical_orbitals> (1)
323

>  <i_j_Geometry_convergence_category> (1)
0

>  <r_j_Gas_Phase_Energy> (1)
-425.254556385435

>  <r_j_Final_Energy> (1)
-425.254556385435

>  <r_j_HOMO> (1)
-0.0435086132221822

>  <r_j_LUMO> (1)
0.12230170899716

>  <r_j_Polarizability> (1)
97.301647788708

>  <r_j_QM_Dipole_(debye)> (1)
13.9601644270198

>  <r_j_QM_Dipole_X_(debye)> (1)
-9.99793740298516

>  <r_j_QM_Dipole_Y_(debye)> (1)
9.72153662799609

>  <r_j_QM_Dipole_Z_(debye)> (1)
-0.647428842383911

>  <r_j_Lowest_Frequency_(cm-1)> (1)
67.5212573771722

>  <r_j_Highest_Frequency_(cm-1)> (1)
3031.84257855494

>  <r_j_2nd_Lowest_Frequency_(cm-1)> (1)
86.3200355611739

>  <i_j_Num_Negative_Frequencies> (1)
0

>  <r_j_Zero_Point_Energy_(kcal/mol)> (1)
119.251413117866

>  <r_j_Entropy_(cal/mol/K)_298.15K_1.00E+00atm> (1)
98.6009429373114

>  <r_j_Enthalpy_(kcal/mol)_298.15K_1.00E+00atm> (1)
6.98596563789781

>  <r_j_Free_Energy_(kcal/mol)_298.15K_1.00E+00atm> (1)
-22.4119054988616

>  <r_j_Internal_Energy_(kcal/mol)_298.15K_1.00E+00atm> (1)
6.39348004907053

>  <r_j_Heat_Capacity_(cal/mol/K)_298.15K_1.00E+00atm> (1)
36.6916227043339

>  <r_j_ln(Q)_298.15K_1.00E+00atm> (1)
37.826920893084

>  <r_j_Total_Internal_Energy_(au)_298.15K_1.00E+00atm> (1)
-425.054328501755

>  <r_j_Total_Enthalpy_(au)_298.15K_1.00E+00atm> (1)
-425.053384315863

>  <r_j_Total_Free_Energy_(au)_298.15K_1.00E+00atm> (1)
-425.100232805874

>  <r_epik_Ionization_Penalty> (1)
  0.0049

>  <r_epik_Ionization_Penalty_Charging> (1)
  0.0049

>  <r_epik_Ionization_Penalty_Neutral> (1)
  0.0000

>  <r_epik_State_Penalty> (1)
  0.0035

>  <r_epik_Charging_Adjusted_Penalty> (1)
0.00837196

>  <i_epik_Tot_Q> (1)
-1

>  <i_epik_Tot_abs_Q> (1)
1

>  <s_lp_Force_Field> (1)
S-OPLS

>  <r_lp_Energy> (1)
7.05249

>  <b_lp_Chiralities_Consistent> (1)
1

$$$$
