81464_Heptyl Hexanoate
                    3D
 Schrodinger Suite 2021-3.
 41 40  0  0  1  0            999 V2000
   -4.8706    4.6692    1.0905 C   0  0  0  0  0  0
   -4.2468    3.2726    1.1665 C   0  0  0  0  0  0
   -2.8456    3.2052    0.5473 C   0  0  0  0  0  0
   -2.2196    1.8083    0.6197 C   0  0  0  0  0  0
   -0.8131    1.7345    0.0139 C   0  0  0  0  0  0
   -0.2072    0.3284    0.0952 C   0  0  0  0  0  0
    1.1956    0.2676   -0.4849 C   0  0  0  0  0  0
    1.6572   -1.0971   -0.3570 O   0  0  0  0  0  0
    2.9307   -1.3307   -0.7430 C   0  0  0  0  0  0
    3.6647   -0.4712   -1.1845 O   0  0  0  0  0  0
    3.3024   -2.7854   -0.5230 C   0  0  0  0  0  0
    4.6507   -3.1615   -1.1430 C   0  0  0  0  0  0
    4.6375   -3.1698   -2.6766 C   0  0  0  0  0  0
    5.9944   -3.5423   -3.2844 C   0  0  0  0  0  0
    5.9811   -3.5463   -4.8158 C   0  0  0  0  0  0
   -5.8684    4.6893    1.5409 H   0  0  0  0  0  0
   -4.9671    5.0018    0.0505 H   0  0  0  0  0  0
   -4.2523    5.4062    1.6159 H   0  0  0  0  0  0
   -4.1933    2.9500    2.2153 H   0  0  0  0  0  0
   -4.9004    2.5493    0.6599 H   0  0  0  0  0  0
   -2.8957    3.5291   -0.5022 H   0  0  0  0  0  0
   -2.1891    3.9263    1.0554 H   0  0  0  0  0  0
   -2.1782    1.4828    1.6689 H   0  0  0  0  0  0
   -2.8736    1.0896    0.1056 H   0  0  0  0  0  0
   -0.8502    2.0598   -1.0353 H   0  0  0  0  0  0
   -0.1569    2.4488    0.5310 H   0  0  0  0  0  0
   -0.1717   -0.0044    1.1401 H   0  0  0  0  0  0
   -0.8450   -0.3866   -0.4392 H   0  0  0  0  0  0
    1.2148    0.5531   -1.5430 H   0  0  0  0  0  0
    1.8874    0.9322    0.0442 H   0  0  0  0  0  0
    3.3061   -2.9495    0.5622 H   0  0  0  0  0  0
    2.4893   -3.4087   -0.9140 H   0  0  0  0  0  0
    5.4095   -2.4526   -0.7918 H   0  0  0  0  0  0
    4.9431   -4.1523   -0.7731 H   0  0  0  0  0  0
    3.8731   -3.8772   -3.0311 H   0  0  0  0  0  0
    4.3391   -2.1776   -3.0352 H   0  0  0  0  0  0
    6.7541   -2.8350   -2.9255 H   0  0  0  0  0  0
    6.3003   -4.5314   -2.9158 H   0  0  0  0  0  0
    6.9610   -3.8111   -5.2268 H   0  0  0  0  0  0
    5.7096   -2.5598   -5.2085 H   0  0  0  0  0  0
    5.2513   -4.2672   -5.2023 H   0  0  0  0  0  0
  1  2  1  0  0  0
  1 16  1  0  0  0
  1 17  1  0  0  0
  1 18  1  0  0  0
  2  3  1  0  0  0
  2 19  1  0  0  0
  2 20  1  0  0  0
  3  4  1  0  0  0
  3 21  1  0  0  0
  3 22  1  0  0  0
  4  5  1  0  0  0
  4 23  1  0  0  0
  4 24  1  0  0  0
  5  6  1  0  0  0
  5 25  1  0  0  0
  5 26  1  0  0  0
  6  7  1  0  0  0
  6 27  1  0  0  0
  6 28  1  0  0  0
  7  8  1  0  0  0
  7 29  1  0  0  0
  7 30  1  0  0  0
  8  9  1  0  0  0
  9 10  2  0  0  0
  9 11  1  0  0  0
 11 12  1  0  0  0
 11 31  1  0  0  0
 11 32  1  0  0  0
 12 13  1  0  0  0
 12 33  1  0  0  0
 12 34  1  0  0  0
 13 14  1  0  0  0
 13 35  1  0  0  0
 13 36  1  0  0  0
 14 15  1  0  0  0
 14 37  1  0  0  0
 14 38  1  0  0  0
 15 39  1  0  0  0
 15 40  1  0  0  0
 15 41  1  0  0  0
M  END
>  <i_m_Spin_multiplicity> (1)
1

>  <s_j_Task> (1)
Single Point

>  <s_j_QM_Method> (1)
DFT(b3lyp-d3)

>  <s_j_QM_Basis> (1)
cc-pvtz(-f)

>  <i_j_Number_of_canonical_orbitals> (1)
576

>  <i_j_Geometry_convergence_category> (1)
0

>  <r_j_Gas_Phase_Energy> (1)
-661.79409800126

>  <r_j_Final_Energy> (1)
-661.79409800126

>  <r_j_HOMO> (1)
-0.276795727065206

>  <r_j_LUMO> (1)
0.00127140399742734

>  <r_j_Polarizability> (1)
167.559950497008

>  <r_j_QM_Dipole_(debye)> (1)
1.96517221714692

>  <r_j_QM_Dipole_X_(debye)> (1)
-1.69754165447357

>  <r_j_QM_Dipole_Y_(debye)> (1)
-0.50172403989773

>  <r_j_QM_Dipole_Z_(debye)> (1)
0.853538026195666

>  <r_j_Lowest_Frequency_(cm-1)> (1)
33.2216822804107

>  <r_j_Highest_Frequency_(cm-1)> (1)
3047.04116539902

>  <r_j_2nd_Lowest_Frequency_(cm-1)> (1)
51.7341844725175

>  <i_j_Num_Negative_Frequencies> (1)
0

>  <r_j_Zero_Point_Energy_(kcal/mol)> (1)
234.976948023212

>  <r_j_Entropy_(cal/mol/K)_298.15K_1.00E+00atm> (1)
133.437395578945

>  <r_j_Enthalpy_(kcal/mol)_298.15K_1.00E+00atm> (1)
11.7492165745511

>  <r_j_Free_Energy_(kcal/mol)_298.15K_1.00E+00atm> (1)
-28.0351429173112

>  <r_j_Internal_Energy_(kcal/mol)_298.15K_1.00E+00atm> (1)
11.1567309857238

>  <r_j_Heat_Capacity_(cal/mol/K)_298.15K_1.00E+00atm> (1)
66.564459575642

>  <r_j_ln(Q)_298.15K_1.00E+00atm> (1)
47.317847802513

>  <r_j_Total_Internal_Energy_(au)_298.15K_1.00E+00atm> (1)
-661.401859013999

>  <r_j_Total_Enthalpy_(au)_298.15K_1.00E+00atm> (1)
-661.400914828107

>  <r_j_Total_Free_Energy_(au)_298.15K_1.00E+00atm> (1)
-661.464315241

>  <r_lp_tautomer_probability> (1)
1

>  <r_epik_Ionization_Penalty> (1)
  0.0000

>  <r_epik_Ionization_Penalty_Charging> (1)
  0.0000

>  <r_epik_Ionization_Penalty_Neutral> (1)
  0.0000

>  <r_epik_State_Penalty> (1)
  0.0000

>  <r_epik_Charging_Adjusted_Penalty> (1)
0

>  <i_epik_Tot_Q> (1)
0

>  <i_epik_Tot_abs_Q> (1)
0

>  <s_lp_Force_Field> (1)
S-OPLS

>  <r_lp_Energy> (1)
4.5091

>  <b_lp_Chiralities_Consistent> (1)
1

>  <s_epik_Chemistry_Notes> (1)
This compound has an ester and may undergo hydrolysis at high or low pH.

$$$$
