8158_Nonanoic acid
                    3D
 Schrodinger Suite 2021-3.
 28 27  0  0  1  0            999 V2000
   -2.6851    2.9503   -0.0562 C   0  0  0  0  0  0
   -2.1260    1.5252    0.0001 C   0  0  0  0  0  0
   -0.5936    1.4760    0.0214 C   0  0  0  0  0  0
   -0.0262    0.0530    0.0740 C   0  0  0  0  0  0
    1.5056   -0.0052    0.0857 C   0  0  0  0  0  0
    2.0692   -1.4313    0.1314 C   0  0  0  0  0  0
    3.6007   -1.4925    0.1145 C   0  0  0  0  0  0
    4.1820   -2.9058    0.1408 C   0  0  0  0  0  0
    5.7369   -2.9591   -0.1355 C   0  0  0  0  0  0
    6.3262   -3.9534    0.3521 O   0  0  0  0  0  0
    6.1905   -2.0183   -0.8387 O   0  5  0  0  0  0
   -3.7810    2.9579   -0.0716 H   0  0  0  0  0  0
   -2.3349    3.4746   -0.9532 H   0  0  0  0  0  0
   -2.3593    3.5350    0.8123 H   0  0  0  0  0  0
   -2.5161    1.0121    0.8901 H   0  0  0  0  0  0
   -2.4930    0.9526   -0.8631 H   0  0  0  0  0  0
   -0.2026    1.9909   -0.8685 H   0  0  0  0  0  0
   -0.2246    2.0481    0.8854 H   0  0  0  0  0  0
   -0.4164   -0.4591    0.9662 H   0  0  0  0  0  0
   -0.4034   -0.5175   -0.7876 H   0  0  0  0  0  0
    1.8958    0.5074   -0.8056 H   0  0  0  0  0  0
    1.8842    0.5635    0.9479 H   0  0  0  0  0  0
    1.6835   -1.9406    1.0285 H   0  0  0  0  0  0
    1.6743   -1.9993   -0.7252 H   0  0  0  0  0  0
    4.0012   -0.9988   -0.7789 H   0  0  0  0  0  0
    3.9942   -0.9200    0.9682 H   0  0  0  0  0  0
    3.9714   -3.4105    1.0930 H   0  0  0  0  0  0
    3.6931   -3.5113   -0.6409 H   0  0  0  0  0  0
  1  2  1  0  0  0
  1 12  1  0  0  0
  1 13  1  0  0  0
  1 14  1  0  0  0
  2  3  1  0  0  0
  2 15  1  0  0  0
  2 16  1  0  0  0
  3  4  1  0  0  0
  3 17  1  0  0  0
  3 18  1  0  0  0
  4  5  1  0  0  0
  4 19  1  0  0  0
  4 20  1  0  0  0
  5  6  1  0  0  0
  5 21  1  0  0  0
  5 22  1  0  0  0
  6  7  1  0  0  0
  6 23  1  0  0  0
  6 24  1  0  0  0
  7  8  1  0  0  0
  7 25  1  0  0  0
  7 26  1  0  0  0
  8  9  1  0  0  0
  8 27  1  0  0  0
  8 28  1  0  0  0
  9 10  2  0  0  0
  9 11  1  0  0  0
M  END
>  <i_m_Spin_multiplicity> (1)
1

>  <s_j_Task> (1)
Single Point

>  <s_j_QM_Method> (1)
DFT(b3lyp-d3)

>  <s_j_QM_Basis> (1)
cc-pvtz(-f)

>  <i_j_Number_of_canonical_orbitals> (1)
404

>  <i_j_Geometry_convergence_category> (1)
0

>  <r_j_Gas_Phase_Energy> (1)
-503.913543405091

>  <r_j_Final_Energy> (1)
-503.913543405091

>  <r_j_HOMO> (1)
-0.0451706108097681

>  <r_j_LUMO> (1)
0.108480422693933

>  <r_j_Polarizability> (1)
122.353479041474

>  <r_j_QM_Dipole_(debye)> (1)
19.4863949037092

>  <r_j_QM_Dipole_X_(debye)> (1)
-17.118362696856

>  <r_j_QM_Dipole_Y_(debye)> (1)
9.26979950432458

>  <r_j_QM_Dipole_Z_(debye)> (1)
0.867215124301382

>  <r_j_Lowest_Frequency_(cm-1)> (1)
52.2540194308332

>  <r_j_Highest_Frequency_(cm-1)> (1)
3035.39527075183

>  <r_j_2nd_Lowest_Frequency_(cm-1)> (1)
63.295046112397

>  <i_j_Num_Negative_Frequencies> (1)
0

>  <r_j_Zero_Point_Energy_(kcal/mol)> (1)
154.964835265802

>  <r_j_Entropy_(cal/mol/K)_298.15K_1.00E+00atm> (1)
110.457582401435

>  <r_j_Enthalpy_(kcal/mol)_298.15K_1.00E+00atm> (1)
8.52884491328354

>  <r_j_Free_Energy_(kcal/mol)_298.15K_1.00E+00atm> (1)
-24.4040832797043

>  <r_j_Internal_Energy_(kcal/mol)_298.15K_1.00E+00atm> (1)
7.93635932445627

>  <r_j_Heat_Capacity_(cal/mol/K)_298.15K_1.00E+00atm> (1)
46.2027668972487

>  <r_j_ln(Q)_298.15K_1.00E+00atm> (1)
41.189328044262

>  <r_j_Total_Internal_Energy_(au)_298.15K_1.00E+00atm> (1)
-503.653943825518

>  <r_j_Total_Enthalpy_(au)_298.15K_1.00E+00atm> (1)
-503.652999639626

>  <r_j_Total_Free_Energy_(au)_298.15K_1.00E+00atm> (1)
-503.70548160168

>  <r_epik_Ionization_Penalty> (1)
  0.0049

>  <r_epik_Ionization_Penalty_Charging> (1)
  0.0049

>  <r_epik_Ionization_Penalty_Neutral> (1)
  0.0000

>  <r_epik_State_Penalty> (1)
  0.0035

>  <r_epik_Charging_Adjusted_Penalty> (1)
0.00839021531719891

>  <i_epik_Tot_Q> (1)
-1

>  <i_epik_Tot_abs_Q> (1)
1

>  <s_lp_Force_Field> (1)
S-OPLS

>  <r_lp_Energy> (1)
7.706102

>  <b_lp_Chiralities_Consistent> (1)
1

$$$$
