8163_2-Undecanone
                    3D
 Schrodinger Suite 2021-3.
 34 33  0  0  1  0            999 V2000
   -4.1756    2.9977   -0.0317 C   0  0  0  0  0  0
   -2.6457    2.9307   -0.0176 C   0  0  0  0  0  0
   -2.1072    1.4951   -0.0233 C   0  0  0  0  0  0
   -0.5765    1.4204   -0.0124 C   0  0  0  0  0  0
   -0.0338   -0.0131   -0.0046 C   0  0  0  0  0  0
    1.4975   -0.0799    0.0003 C   0  0  0  0  0  0
    2.0444   -1.5113    0.0319 C   0  0  0  0  0  0
    3.5757   -1.5670    0.0237 C   0  0  0  0  0  0
    4.1231   -3.0085    0.0721 C   0  0  0  0  0  0
    5.6449   -2.9995    0.0206 C   0  0  0  0  0  0
    6.2391   -3.0119   -1.0412 O   0  0  0  0  0  0
    6.3760   -2.9281    1.3495 C   0  0  0  0  0  0
   -4.5338    4.0324   -0.0252 H   0  0  0  0  0  0
   -4.6002    2.4920    0.8432 H   0  0  0  0  0  0
   -4.5831    2.5090   -0.9243 H   0  0  0  0  0  0
   -2.2453    3.4699   -0.8870 H   0  0  0  0  0  0
   -2.2622    3.4561    0.8678 H   0  0  0  0  0  0
   -2.5048    0.9552    0.8483 H   0  0  0  0  0  0
   -2.4917    0.9663   -0.9074 H   0  0  0  0  0  0
   -0.1806    1.9539   -0.8885 H   0  0  0  0  0  0
   -0.1931    1.9575    0.8670 H   0  0  0  0  0  0
   -0.4244   -0.5449    0.8749 H   0  0  0  0  0  0
   -0.4187   -0.5538   -0.8810 H   0  0  0  0  0  0
    1.8870    0.4386   -0.8871 H   0  0  0  0  0  0
    1.8824    0.4744    0.8683 H   0  0  0  0  0  0
    1.6651   -2.0274    0.9253 H   0  0  0  0  0  0
    1.6576   -2.0712   -0.8310 H   0  0  0  0  0  0
    3.9604   -1.0773   -0.8795 H   0  0  0  0  0  0
    3.9647   -0.9949    0.8775 H   0  0  0  0  0  0
    3.7679   -3.5066    0.9831 H   0  0  0  0  0  0
    3.7599   -3.5678   -0.7958 H   0  0  0  0  0  0
    6.2441   -3.8735    1.8902 H   0  0  0  0  0  0
    5.9568   -2.1389    1.9839 H   0  0  0  0  0  0
    7.4394   -2.7512    1.1827 H   0  0  0  0  0  0
  1  2  1  0  0  0
  1 13  1  0  0  0
  1 14  1  0  0  0
  1 15  1  0  0  0
  2  3  1  0  0  0
  2 16  1  0  0  0
  2 17  1  0  0  0
  3  4  1  0  0  0
  3 18  1  0  0  0
  3 19  1  0  0  0
  4  5  1  0  0  0
  4 20  1  0  0  0
  4 21  1  0  0  0
  5  6  1  0  0  0
  5 22  1  0  0  0
  5 23  1  0  0  0
  6  7  1  0  0  0
  6 24  1  0  0  0
  6 25  1  0  0  0
  7  8  1  0  0  0
  7 26  1  0  0  0
  7 27  1  0  0  0
  8  9  1  0  0  0
  8 28  1  0  0  0
  8 29  1  0  0  0
  9 10  1  0  0  0
  9 30  1  0  0  0
  9 31  1  0  0  0
 10 11  2  0  0  0
 10 12  1  0  0  0
 12 32  1  0  0  0
 12 33  1  0  0  0
 12 34  1  0  0  0
M  END
>  <i_m_Spin_multiplicity> (1)
1

>  <s_j_Task> (1)
Single Point

>  <s_j_QM_Method> (1)
DFT(b3lyp-d3)

>  <s_j_QM_Basis> (1)
cc-pvtz(-f)

>  <i_j_Number_of_canonical_orbitals> (1)
471

>  <i_j_Geometry_convergence_category> (1)
0

>  <r_j_Gas_Phase_Energy> (1)
-507.867319637825

>  <r_j_Final_Energy> (1)
-507.867319637825

>  <r_j_HOMO> (1)
-0.263849735033337

>  <r_j_LUMO> (1)
-0.0376235995873782

>  <r_j_Polarizability> (1)
138.697628803826

>  <r_j_QM_Dipole_(debye)> (1)
2.95535492825387

>  <r_j_QM_Dipole_X_(debye)> (1)
-1.7136182246797

>  <r_j_QM_Dipole_Y_(debye)> (1)
0.376662716671227

>  <r_j_QM_Dipole_Z_(debye)> (1)
2.37818429266319

>  <r_j_Lowest_Frequency_(cm-1)> (1)
49.0788737788921

>  <r_j_Highest_Frequency_(cm-1)> (1)
3099.30596149119

>  <r_j_2nd_Lowest_Frequency_(cm-1)> (1)
57.6248639918817

>  <i_j_Num_Negative_Frequencies> (1)
0

>  <r_j_Zero_Point_Energy_(kcal/mol)> (1)
195.669980741562

>  <r_j_Entropy_(cal/mol/K)_298.15K_1.00E+00atm> (1)
118.926836370019

>  <r_j_Enthalpy_(kcal/mol)_298.15K_1.00E+00atm> (1)
9.77412007647317

>  <r_j_Free_Energy_(kcal/mol)_298.15K_1.00E+00atm> (1)
-25.6839161872481

>  <r_j_Internal_Energy_(kcal/mol)_298.15K_1.00E+00atm> (1)
9.1816344876459

>  <r_j_Heat_Capacity_(cal/mol/K)_298.15K_1.00E+00atm> (1)
54.2568168367754

>  <r_j_ln(Q)_298.15K_1.00E+00atm> (1)
43.3494361239825

>  <r_j_Total_Internal_Energy_(au)_298.15K_1.00E+00atm> (1)
-507.540867807179

>  <r_j_Total_Enthalpy_(au)_298.15K_1.00E+00atm> (1)
-507.539923621287

>  <r_j_Total_Free_Energy_(au)_298.15K_1.00E+00atm> (1)
-507.596429599218

>  <r_lp_tautomer_probability> (1)
1

>  <r_epik_Ionization_Penalty> (1)
  0.0000

>  <r_epik_Ionization_Penalty_Charging> (1)
  0.0000

>  <r_epik_Ionization_Penalty_Neutral> (1)
  0.0000

>  <r_epik_State_Penalty> (1)
  0.0000

>  <r_epik_Charging_Adjusted_Penalty> (1)
0

>  <i_epik_Tot_Q> (1)
0

>  <i_epik_Tot_abs_Q> (1)
0

>  <s_lp_Force_Field> (1)
S-OPLS

>  <r_lp_Energy> (1)
3.916179

>  <b_lp_Chiralities_Consistent> (1)
1

$$$$
