8170_Ethylene Glycol Monohexyl Ether
                    3D
 Schrodinger Suite 2021-3.
 28 27  0  0  1  0            999 V2000
   -4.0817    2.9378   -0.0477 C   0  0  0  0  0  0
   -2.5523    2.8821    0.0070 C   0  0  0  0  0  0
   -2.0014    1.4513   -0.0013 C   0  0  0  0  0  0
   -0.4717    1.3935    0.0443 C   0  0  0  0  0  0
    0.0833   -0.0355    0.0340 C   0  0  0  0  0  0
    1.6060   -0.0729    0.0031 C   0  0  0  0  0  0
    2.0362    0.5392   -1.2014 O   0  0  0  0  0  0
    3.4350    0.7039   -1.2923 C   0  0  0  0  0  0
    3.7527    1.4943   -2.5458 C   0  0  0  0  0  0
    3.3367    2.8382   -2.3449 O   0  0  0  0  0  0
   -4.4486    3.9696   -0.0411 H   0  0  0  0  0  0
   -4.5262    2.4203    0.8105 H   0  0  0  0  0  0
   -4.4614    2.4546   -0.9555 H   0  0  0  0  0  0
   -2.1320    3.4335   -0.8449 H   0  0  0  0  0  0
   -2.1967    3.4006    0.9079 H   0  0  0  0  0  0
   -2.4185    0.8969    0.8525 H   0  0  0  0  0  0
   -2.3589    0.9313   -0.9020 H   0  0  0  0  0  0
   -0.0495    1.9372   -0.8085 H   0  0  0  0  0  0
   -0.1130    1.9118    0.9456 H   0  0  0  0  0  0
   -0.2638   -0.5861    0.9185 H   0  0  0  0  0  0
   -0.2942   -0.5753   -0.8440 H   0  0  0  0  0  0
    2.0174    0.4671    0.8743 H   0  0  0  0  0  0
    1.9749   -1.1121    0.0608 H   0  0  0  0  0  0
    3.8280    1.2477   -0.4172 H   0  0  0  0  0  0
    3.9471   -0.2739   -1.3370 H   0  0  0  0  0  0
    4.8372    1.4274   -2.7364 H   0  0  0  0  0  0
    3.2307    1.0244   -3.3935 H   0  0  0  0  0  0
    3.3980    3.3005   -3.1896 H   0  0  0  0  0  0
  1  2  1  0  0  0
  1 11  1  0  0  0
  1 12  1  0  0  0
  1 13  1  0  0  0
  2  3  1  0  0  0
  2 14  1  0  0  0
  2 15  1  0  0  0
  3  4  1  0  0  0
  3 16  1  0  0  0
  3 17  1  0  0  0
  4  5  1  0  0  0
  4 18  1  0  0  0
  4 19  1  0  0  0
  5  6  1  0  0  0
  5 20  1  0  0  0
  5 21  1  0  0  0
  6  7  1  0  0  0
  6 22  1  0  0  0
  6 23  1  0  0  0
  7  8  1  0  0  0
  8  9  1  0  0  0
  8 24  1  0  0  0
  8 25  1  0  0  0
  9 10  1  0  0  0
  9 26  1  0  0  0
  9 27  1  0  0  0
 10 28  1  0  0  0
M  END
>  <i_m_Spin_multiplicity> (1)
1

>  <s_j_Task> (1)
Single Point

>  <s_j_QM_Method> (1)
DFT(b3lyp-d3)

>  <s_j_QM_Basis> (1)
cc-pvtz(-f)

>  <i_j_Number_of_canonical_orbitals> (1)
391

>  <i_j_Geometry_convergence_category> (1)
3

>  <r_j_Gas_Phase_Energy> (1)
-466.314937677997

>  <r_j_Final_Energy> (1)
-466.314937677997

>  <r_j_HOMO> (1)
-0.246267367743596

>  <r_j_LUMO> (1)
0.0416257577100578

>  <r_j_Polarizability> (1)
109.14120298612

>  <r_j_QM_Dipole_(debye)> (1)
1.54243749488179

>  <r_j_QM_Dipole_X_(debye)> (1)
1.2021064040022

>  <r_j_QM_Dipole_Y_(debye)> (1)
-0.665691064687716

>  <r_j_QM_Dipole_Z_(debye)> (1)
-0.700649003045779

>  <r_j_Lowest_Frequency_(cm-1)> (1)
41.4487674442805

>  <r_j_Highest_Frequency_(cm-1)> (1)
3781.16318553334

>  <r_j_2nd_Lowest_Frequency_(cm-1)> (1)
75.4245232210844

>  <i_j_Num_Negative_Frequencies> (1)
0

>  <r_j_Zero_Point_Energy_(kcal/mol)> (1)
160.112682730027

>  <r_j_Entropy_(cal/mol/K)_298.15K_1.00E+00atm> (1)
107.711562378214

>  <r_j_Enthalpy_(kcal/mol)_298.15K_1.00E+00atm> (1)
8.24982327623763

>  <r_j_Free_Energy_(kcal/mol)_298.15K_1.00E+00atm> (1)
-23.8643790468268

>  <r_j_Internal_Energy_(kcal/mol)_298.15K_1.00E+00atm> (1)
7.65733768741035

>  <r_j_Heat_Capacity_(cal/mol/K)_298.15K_1.00E+00atm> (1)
44.7506516027605

>  <r_j_ln(Q)_298.15K_1.00E+00atm> (1)
40.2784126683356

>  <r_j_Total_Internal_Energy_(au)_298.15K_1.00E+00atm> (1)
-466.047579130535

>  <r_j_Total_Enthalpy_(au)_298.15K_1.00E+00atm> (1)
-466.046634944643

>  <r_j_Total_Free_Energy_(au)_298.15K_1.00E+00atm> (1)
-466.097812183965

>  <r_lp_tautomer_probability> (1)
1

>  <r_epik_Ionization_Penalty> (1)
  0.0000

>  <r_epik_Ionization_Penalty_Charging> (1)
  0.0000

>  <r_epik_Ionization_Penalty_Neutral> (1)
  0.0000

>  <r_epik_State_Penalty> (1)
  0.0000

>  <r_epik_Charging_Adjusted_Penalty> (1)
0

>  <i_epik_Tot_Q> (1)
0

>  <i_epik_Tot_abs_Q> (1)
0

>  <s_lp_Force_Field> (1)
S-OPLS

>  <r_lp_Energy> (1)
3.974909

>  <b_lp_Chiralities_Consistent> (1)
1

$$$$
