8174_Decyl alcohol
                    3D
 Schrodinger Suite 2021-3.
 33 32  0  0  1  0            999 V2000
   -0.3904    4.5912   -2.4831 C   0  0  0  0  0  0
   -0.7445    3.7394   -1.2606 C   0  0  0  0  0  0
   -0.1041    2.3464   -1.2926 C   0  0  0  0  0  0
   -0.4561    1.4939   -0.0664 C   0  0  0  0  0  0
    0.0937    0.0598   -0.1045 C   0  0  0  0  0  0
    1.6247   -0.0375   -0.0710 C   0  0  0  0  0  0
    2.1327   -1.4824   -0.0079 C   0  0  0  0  0  0
    3.6615   -1.5902    0.0226 C   0  0  0  0  0  0
    4.1594   -3.0374    0.0954 C   0  0  0  0  0  0
    5.6778   -3.1435    0.1268 C   0  0  0  0  0  0
    6.0193   -4.5249    0.1956 O   0  0  0  0  0  0
   -0.8604    5.5790   -2.4363 H   0  0  0  0  0  0
   -0.7216    4.1076   -3.4094 H   0  0  0  0  0  0
    0.6929    4.7404   -2.5592 H   0  0  0  0  0  0
   -0.4300    4.2599   -0.3456 H   0  0  0  0  0  0
   -1.8357    3.6341   -1.1887 H   0  0  0  0  0  0
   -0.4238    1.8202   -2.2040 H   0  0  0  0  0  0
    0.9853    2.4575   -1.3733 H   0  0  0  0  0  0
   -0.0915    1.9977    0.8405 H   0  0  0  0  0  0
   -1.5495    1.4518    0.0303 H   0  0  0  0  0  0
   -0.3128   -0.4983    0.7499 H   0  0  0  0  0  0
   -0.2813   -0.4491   -1.0042 H   0  0  0  0  0  0
    2.0513    0.4531   -0.9556 H   0  0  0  0  0  0
    2.0035    0.5200    0.7981 H   0  0  0  0  0  0
    1.7169   -1.9762    0.8819 H   0  0  0  0  0  0
    1.7471   -2.0421   -0.8718 H   0  0  0  0  0  0
    4.0766   -1.1021   -0.8709 H   0  0  0  0  0  0
    4.0465   -1.0248    0.8835 H   0  0  0  0  0  0
    3.7602   -3.5303    0.9906 H   0  0  0  0  0  0
    3.7907   -3.6086   -0.7658 H   0  0  0  0  0  0
    6.1010   -2.6694   -0.7753 H   0  0  0  0  0  0
    6.0696   -2.5889    0.9966 H   0  0  0  0  0  0
    6.9819   -4.5953    0.2177 H   0  0  0  0  0  0
  1  2  1  0  0  0
  1 12  1  0  0  0
  1 13  1  0  0  0
  1 14  1  0  0  0
  2  3  1  0  0  0
  2 15  1  0  0  0
  2 16  1  0  0  0
  3  4  1  0  0  0
  3 17  1  0  0  0
  3 18  1  0  0  0
  4  5  1  0  0  0
  4 19  1  0  0  0
  4 20  1  0  0  0
  5  6  1  0  0  0
  5 21  1  0  0  0
  5 22  1  0  0  0
  6  7  1  0  0  0
  6 23  1  0  0  0
  6 24  1  0  0  0
  7  8  1  0  0  0
  7 25  1  0  0  0
  7 26  1  0  0  0
  8  9  1  0  0  0
  8 27  1  0  0  0
  8 28  1  0  0  0
  9 10  1  0  0  0
  9 29  1  0  0  0
  9 30  1  0  0  0
 10 11  1  0  0  0
 10 31  1  0  0  0
 10 32  1  0  0  0
 11 33  1  0  0  0
M  END
>  <i_m_Spin_multiplicity> (1)
1

>  <s_j_Task> (1)
Single Point

>  <s_j_QM_Method> (1)
DFT(b3lyp-d3)

>  <s_j_QM_Basis> (1)
cc-pvtz(-f)

>  <i_j_Number_of_canonical_orbitals> (1)
449

>  <i_j_Geometry_convergence_category> (1)
3

>  <r_j_Gas_Phase_Energy> (1)
-469.740090472795

>  <r_j_Final_Energy> (1)
-469.740090472795

>  <r_j_HOMO> (1)
-0.292815186417074

>  <r_j_LUMO> (1)
0.0107368988566512

>  <r_j_Polarizability> (1)
129.062880347484

>  <r_j_QM_Dipole_(debye)> (1)
1.40812628537589

>  <r_j_QM_Dipole_X_(debye)> (1)
0.876463671463184

>  <r_j_QM_Dipole_Y_(debye)> (1)
1.10200823384801

>  <r_j_QM_Dipole_Z_(debye)> (1)
0.0144540894888633

>  <r_j_Lowest_Frequency_(cm-1)> (1)
48.8442491523906

>  <r_j_Highest_Frequency_(cm-1)> (1)
3771.04602739373

>  <r_j_2nd_Lowest_Frequency_(cm-1)> (1)
73.9406804004984

>  <i_j_Num_Negative_Frequencies> (1)
0

>  <r_j_Zero_Point_Energy_(kcal/mol)> (1)
193.161699126486

>  <r_j_Entropy_(cal/mol/K)_298.15K_1.00E+00atm> (1)
114.705770293602

>  <r_j_Enthalpy_(kcal/mol)_298.15K_1.00E+00atm> (1)
9.20976086515445

>  <r_j_Free_Energy_(kcal/mol)_298.15K_1.00E+00atm> (1)
-24.9897645478829

>  <r_j_Internal_Energy_(kcal/mol)_298.15K_1.00E+00atm> (1)
8.61727527632718

>  <r_j_Heat_Capacity_(cal/mol/K)_298.15K_1.00E+00atm> (1)
51.0791860443667

>  <r_j_ln(Q)_298.15K_1.00E+00atm> (1)
42.1778436794487

>  <r_j_Total_Internal_Energy_(au)_298.15K_1.00E+00atm> (1)
-469.418535207019

>  <r_j_Total_Enthalpy_(au)_298.15K_1.00E+00atm> (1)
-469.417591021127

>  <r_j_Total_Free_Energy_(au)_298.15K_1.00E+00atm> (1)
-469.472091434345

>  <r_lp_tautomer_probability> (1)
1

>  <r_epik_Ionization_Penalty> (1)
  0.0000

>  <r_epik_Ionization_Penalty_Charging> (1)
  0.0000

>  <r_epik_Ionization_Penalty_Neutral> (1)
  0.0000

>  <r_epik_State_Penalty> (1)
  0.0000

>  <r_epik_Charging_Adjusted_Penalty> (1)
0

>  <i_epik_Tot_Q> (1)
0

>  <i_epik_Tot_abs_Q> (1)
0

>  <s_lp_Force_Field> (1)
S-OPLS

>  <r_lp_Energy> (1)
5.752092

>  <b_lp_Chiralities_Consistent> (1)
1

$$$$
