8177_2-(2-butoxyethoxy)ethanol
                    3D
 Schrodinger Suite 2021-3.
 29 28  0  0  1  0            999 V2000
   -4.0867   -0.5173    1.3126 C   0  0  0  0  0  0
   -2.5624   -0.3735    1.3365 C   0  0  0  0  0  0
   -2.0527    0.5974    0.2651 C   0  0  0  0  0  0
   -0.5577    0.8805    0.3281 C   0  0  0  0  0  0
    0.1708   -0.3355    0.1482 O   0  0  0  0  0  0
    1.5330   -0.1295   -0.1988 C   0  0  0  0  0  0
    2.2318   -1.4763   -0.2453 C   0  0  0  0  0  0
    2.3930   -1.9680    1.0735 O   0  0  0  0  0  0
    1.8971   -3.2693    1.3843 C   0  0  0  0  0  0
    0.9445   -3.1376    2.5639 C   0  0  0  0  0  0
   -0.2116   -2.4006    2.2233 O   0  0  0  0  0  0
   -4.4304   -1.2221    2.0761 H   0  0  0  0  0  0
   -4.4325   -0.8867    0.3399 H   0  0  0  0  0  0
   -4.5830    0.4435    1.4952 H   0  0  0  0  0  0
   -2.2382   -0.0264    2.3268 H   0  0  0  0  0  0
   -2.0983   -1.3529    1.1947 H   0  0  0  0  0  0
   -2.2924    0.2072   -0.7326 H   0  0  0  0  0  0
   -2.5725    1.5614    0.3579 H   0  0  0  0  0  0
   -0.2800    1.5950   -0.4627 H   0  0  0  0  0  0
   -0.2840    1.3359    1.2943 H   0  0  0  0  0  0
    1.6046    0.3636   -1.1826 H   0  0  0  0  0  0
    2.0354    0.5129    0.5411 H   0  0  0  0  0  0
    1.6385   -2.1643   -0.8627 H   0  0  0  0  0  0
    3.2161   -1.3552   -0.7223 H   0  0  0  0  0  0
    1.3573   -3.6972    0.5286 H   0  0  0  0  0  0
    2.7385   -3.9334    1.6311 H   0  0  0  0  0  0
    0.6190   -4.1337    2.8886 H   0  0  0  0  0  0
    1.4923   -2.6760    3.4027 H   0  0  0  0  0  0
    0.0703   -1.6244    1.7072 H   0  0  0  0  0  0
  1  2  1  0  0  0
  1 12  1  0  0  0
  1 13  1  0  0  0
  1 14  1  0  0  0
  2  3  1  0  0  0
  2 15  1  0  0  0
  2 16  1  0  0  0
  3  4  1  0  0  0
  3 17  1  0  0  0
  3 18  1  0  0  0
  4  5  1  0  0  0
  4 19  1  0  0  0
  4 20  1  0  0  0
  5  6  1  0  0  0
  6  7  1  0  0  0
  6 21  1  0  0  0
  6 22  1  0  0  0
  7  8  1  0  0  0
  7 23  1  0  0  0
  7 24  1  0  0  0
  8  9  1  0  0  0
  9 10  1  0  0  0
  9 25  1  0  0  0
  9 26  1  0  0  0
 10 11  1  0  0  0
 10 27  1  0  0  0
 10 28  1  0  0  0
 11 29  1  0  0  0
M  END
>  <i_m_Spin_multiplicity> (1)
1

>  <s_j_Task> (1)
Single Point

>  <s_j_QM_Method> (1)
DFT(b3lyp-d3)

>  <s_j_QM_Basis> (1)
cc-pvtz(-f)

>  <i_j_Number_of_canonical_orbitals> (1)
414

>  <i_j_Geometry_convergence_category> (1)
1

>  <r_j_Gas_Phase_Energy> (1)
-541.554873812929

>  <r_j_Final_Energy> (1)
-541.554873812929

>  <r_j_HOMO> (1)
-0.271746036491035

>  <r_j_LUMO> (1)
0.0218854075796672

>  <r_j_Polarizability> (1)
113.269879148315

>  <r_j_QM_Dipole_(debye)> (1)
2.32975727253769

>  <r_j_QM_Dipole_X_(debye)> (1)
1.27627559456219

>  <r_j_QM_Dipole_Y_(debye)> (1)
0.944765965567898

>  <r_j_QM_Dipole_Z_(debye)> (1)
-1.70478937877139

>  <r_j_Lowest_Frequency_(cm-1)> (1)
52.0530526184888

>  <r_j_Highest_Frequency_(cm-1)> (1)
3620.65150975687

>  <r_j_2nd_Lowest_Frequency_(cm-1)> (1)
65.130462591442

>  <i_j_Num_Negative_Frequencies> (1)
0

>  <r_j_Zero_Point_Energy_(kcal/mol)> (1)
163.548599072079

>  <r_j_Entropy_(cal/mol/K)_298.15K_1.00E+00atm> (1)
110.10024831039

>  <r_j_Enthalpy_(kcal/mol)_298.15K_1.00E+00atm> (1)
8.58866748083212

>  <r_j_Free_Energy_(kcal/mol)_298.15K_1.00E+00atm> (1)
-24.2377215529107

>  <r_j_Internal_Energy_(kcal/mol)_298.15K_1.00E+00atm> (1)
7.99618189200485

>  <r_j_Heat_Capacity_(cal/mol/K)_298.15K_1.00E+00atm> (1)
47.2275030804406

>  <r_j_ln(Q)_298.15K_1.00E+00atm> (1)
40.9085419290706

>  <r_j_Total_Internal_Energy_(au)_298.15K_1.00E+00atm> (1)
-541.281499801595

>  <r_j_Total_Enthalpy_(au)_298.15K_1.00E+00atm> (1)
-541.280555615702

>  <r_j_Total_Free_Energy_(au)_298.15K_1.00E+00atm> (1)
-541.332867796798

>  <r_lp_tautomer_probability> (1)
1

>  <r_epik_Ionization_Penalty> (1)
  0.0000

>  <r_epik_Ionization_Penalty_Charging> (1)
  0.0000

>  <r_epik_Ionization_Penalty_Neutral> (1)
  0.0000

>  <r_epik_State_Penalty> (1)
  0.0000

>  <r_epik_Charging_Adjusted_Penalty> (1)
0

>  <i_epik_Tot_Q> (1)
0

>  <i_epik_Tot_abs_Q> (1)
0

>  <s_lp_Force_Field> (1)
S-OPLS

>  <r_lp_Energy> (1)
5.62823

>  <b_lp_Chiralities_Consistent> (1)
1

$$$$
