8178_Triethylene Glycol Monomethyl Ether
                    3D
 Schrodinger Suite 2021-3.
 27 26  0  0  1  0            999 V2000
   -3.8602    0.4510    1.4176 C   0  0  0  0  0  0
   -2.4825    0.7336    1.3058 O   0  0  0  0  0  0
   -2.1083    1.1260    0.0011 C   0  0  0  0  0  0
   -0.6010    1.2668   -0.0584 C   0  0  0  0  0  0
   -0.0200   -0.0212   -0.0564 O   0  0  0  0  0  0
    1.3912    0.0052   -0.0172 C   0  0  0  0  0  0
    1.9141   -1.4167    0.0073 C   0  0  0  0  0  0
    1.6372   -1.9895    1.2676 O   0  0  0  0  0  0
    2.0788   -3.3274    1.3809 C   0  0  0  0  0  0
    1.6255   -3.8834    2.7164 C   0  0  0  0  0  0
    0.2318   -4.1489    2.6487 O   0  0  0  0  0  0
   -4.0500    0.1645    2.4550 H   0  0  0  0  0  0
   -4.1643   -0.3792    0.7599 H   0  0  0  0  0  0
   -4.4843    1.3272    1.1728 H   0  0  0  0  0  0
   -2.4277    0.3810   -0.7464 H   0  0  0  0  0  0
   -2.5753    2.0910   -0.2671 H   0  0  0  0  0  0
   -0.3236    1.8208   -0.9735 H   0  0  0  0  0  0
   -0.2606    1.8586    0.8070 H   0  0  0  0  0  0
    1.8004    0.5216   -0.9047 H   0  0  0  0  0  0
    1.7532    0.5393    0.8767 H   0  0  0  0  0  0
    1.4373   -1.9919   -0.8032 H   0  0  0  0  0  0
    3.0019   -1.4002   -0.1883 H   0  0  0  0  0  0
    1.6634   -3.9533    0.5739 H   0  0  0  0  0  0
    3.1807   -3.3832    1.3149 H   0  0  0  0  0  0
    2.2000   -4.8012    2.9293 H   0  0  0  0  0  0
    1.8692   -3.1452    3.4947 H   0  0  0  0  0  0
   -0.1193   -4.1568    3.5467 H   0  0  0  0  0  0
  1  2  1  0  0  0
  1 12  1  0  0  0
  1 13  1  0  0  0
  1 14  1  0  0  0
  2  3  1  0  0  0
  3  4  1  0  0  0
  3 15  1  0  0  0
  3 16  1  0  0  0
  4  5  1  0  0  0
  4 17  1  0  0  0
  4 18  1  0  0  0
  5  6  1  0  0  0
  6  7  1  0  0  0
  6 19  1  0  0  0
  6 20  1  0  0  0
  7  8  1  0  0  0
  7 21  1  0  0  0
  7 22  1  0  0  0
  8  9  1  0  0  0
  9 10  1  0  0  0
  9 23  1  0  0  0
  9 24  1  0  0  0
 10 11  1  0  0  0
 10 25  1  0  0  0
 10 26  1  0  0  0
 11 27  1  0  0  0
M  END
>  <i_m_Spin_multiplicity> (1)
1

>  <s_j_Task> (1)
Single Point

>  <s_j_QM_Method> (1)
DFT(b3lyp-d3)

>  <s_j_QM_Basis> (1)
cc-pvtz(-f)

>  <i_j_Number_of_canonical_orbitals> (1)
397

>  <i_j_Geometry_convergence_category> (1)
0

>  <r_j_Gas_Phase_Energy> (1)
-577.442468235029

>  <r_j_Final_Energy> (1)
-577.442468235029

>  <r_j_HOMO> (1)
-0.251728523424939

>  <r_j_LUMO> (1)
-0.00295232957281899

>  <r_j_Polarizability> (1)
106.623041279894

>  <r_j_QM_Dipole_(debye)> (1)
1.05356657382418

>  <r_j_QM_Dipole_X_(debye)> (1)
0.855916452678137

>  <r_j_QM_Dipole_Y_(debye)> (1)
0.593855081478302

>  <r_j_QM_Dipole_Z_(debye)> (1)
-0.157307640364031

>  <r_j_Lowest_Frequency_(cm-1)> (1)
32.2534811328789

>  <r_j_Highest_Frequency_(cm-1)> (1)
3790.87288998773

>  <r_j_2nd_Lowest_Frequency_(cm-1)> (1)
61.8380555923282

>  <i_j_Num_Negative_Frequencies> (1)
0

>  <r_j_Zero_Point_Energy_(kcal/mol)> (1)
147.6155492412

>  <r_j_Entropy_(cal/mol/K)_298.15K_1.00E+00atm> (1)
112.551516397167

>  <r_j_Enthalpy_(kcal/mol)_298.15K_1.00E+00atm> (1)
8.78097336126388

>  <r_j_Free_Energy_(kcal/mol)_298.15K_1.00E+00atm> (1)
-24.7762612525514

>  <r_j_Internal_Energy_(kcal/mol)_298.15K_1.00E+00atm> (1)
8.1884877724366

>  <r_j_Heat_Capacity_(cal/mol/K)_298.15K_1.00E+00atm> (1)
46.4237332642756

>  <r_j_ln(Q)_298.15K_1.00E+00atm> (1)
41.8174918002509

>  <r_j_Total_Internal_Energy_(au)_298.15K_1.00E+00atm> (1)
-577.194178696047

>  <r_j_Total_Enthalpy_(au)_298.15K_1.00E+00atm> (1)
-577.193234510154

>  <r_j_Total_Free_Energy_(au)_298.15K_1.00E+00atm> (1)
-577.246711367824

>  <r_lp_tautomer_probability> (1)
1

>  <r_epik_Ionization_Penalty> (1)
  0.0000

>  <r_epik_Ionization_Penalty_Charging> (1)
  0.0000

>  <r_epik_Ionization_Penalty_Neutral> (1)
  0.0000

>  <r_epik_State_Penalty> (1)
  0.0000

>  <r_epik_Charging_Adjusted_Penalty> (1)
0

>  <i_epik_Tot_Q> (1)
0

>  <i_epik_Tot_abs_Q> (1)
0

>  <s_lp_Force_Field> (1)
S-OPLS

>  <r_lp_Energy> (1)
8.24164

>  <b_lp_Chiralities_Consistent> (1)
1

$$$$
