8179_Diethylene Glycol Diethyl Ether
                    3D
 Schrodinger Suite 2021-3.
 29 28  0  0  1  0            999 V2000
   -0.3237    3.8522   -2.7285 C   0  0  0  0  0  0
   -0.6514    3.3560   -1.3304 C   0  0  0  0  0  0
   -0.2864    1.9891   -1.2529 O   0  0  0  0  0  0
   -0.5424    1.4122    0.0102 C   0  0  0  0  0  0
   -0.0256   -0.0122    0.0162 C   0  0  0  0  0  0
    1.3868    0.0116    0.0578 O   0  0  0  0  0  0
    1.9652   -1.2773    0.0207 C   0  0  0  0  0  0
    3.4742   -1.1399    0.0135 C   0  0  0  0  0  0
    3.8871   -0.6702   -1.2526 O   0  0  0  0  0  0
    5.2796   -0.4206   -1.3321 C   0  0  0  0  0  0
    5.5893    0.0769   -2.7338 C   0  0  0  0  0  0
   -0.5867    4.9094   -2.8345 H   0  0  0  0  0  0
   -0.8783    3.2770   -3.4755 H   0  0  0  0  0  0
    0.7446    3.7339   -2.9302 H   0  0  0  0  0  0
   -0.1037    3.9427   -0.5727 H   0  0  0  0  0  0
   -1.7280    3.4807   -1.1164 H   0  0  0  0  0  0
   -0.0437    1.9778    0.8148 H   0  0  0  0  0  0
   -1.6253    1.4061    0.2280 H   0  0  0  0  0  0
   -0.4353   -0.5427    0.8945 H   0  0  0  0  0  0
   -0.3872   -0.5307   -0.8867 H   0  0  0  0  0  0
    1.6592   -1.8703    0.9013 H   0  0  0  0  0  0
    1.6493   -1.8282   -0.8801 H   0  0  0  0  0  0
    3.7745   -0.4436    0.8141 H   0  0  0  0  0  0
    3.9290   -2.1216    0.2366 H   0  0  0  0  0  0
    5.5784    0.3296   -0.5796 H   0  0  0  0  0  0
    5.8497   -1.3409   -1.1119 H   0  0  0  0  0  0
    6.6580    0.2874   -2.8414 H   0  0  0  0  0  0
    5.0282    0.9922   -2.9419 H   0  0  0  0  0  0
    5.3043   -0.6748   -3.4754 H   0  0  0  0  0  0
  1  2  1  0  0  0
  1 12  1  0  0  0
  1 13  1  0  0  0
  1 14  1  0  0  0
  2  3  1  0  0  0
  2 15  1  0  0  0
  2 16  1  0  0  0
  3  4  1  0  0  0
  4  5  1  0  0  0
  4 17  1  0  0  0
  4 18  1  0  0  0
  5  6  1  0  0  0
  5 19  1  0  0  0
  5 20  1  0  0  0
  6  7  1  0  0  0
  7  8  1  0  0  0
  7 21  1  0  0  0
  7 22  1  0  0  0
  8  9  1  0  0  0
  8 23  1  0  0  0
  8 24  1  0  0  0
  9 10  1  0  0  0
 10 11  1  0  0  0
 10 25  1  0  0  0
 10 26  1  0  0  0
 11 27  1  0  0  0
 11 28  1  0  0  0
 11 29  1  0  0  0
M  END
>  <i_m_Spin_multiplicity> (1)
1

>  <s_j_Task> (1)
Single Point

>  <s_j_QM_Method> (1)
DFT(b3lyp-d3)

>  <s_j_QM_Basis> (1)
cc-pvtz(-f)

>  <i_j_Number_of_canonical_orbitals> (1)
415

>  <i_j_Geometry_convergence_category> (1)
3

>  <r_j_Gas_Phase_Energy> (1)
-541.539643850506

>  <r_j_Final_Energy> (1)
-541.539643850506

>  <r_j_HOMO> (1)
-0.238439162318388

>  <r_j_LUMO> (1)
0.0333485072337012

>  <r_j_Polarizability> (1)
115.49694506317

>  <r_j_QM_Dipole_(debye)> (1)
1.42085369881476

>  <r_j_QM_Dipole_X_(debye)> (1)
-0.221174045699251

>  <r_j_QM_Dipole_Y_(debye)> (1)
-0.344951023554691

>  <r_j_QM_Dipole_Z_(debye)> (1)
1.36048376186311

>  <r_j_Lowest_Frequency_(cm-1)> (1)
35.0323424183152

>  <r_j_Highest_Frequency_(cm-1)> (1)
3070.80706385079

>  <r_j_2nd_Lowest_Frequency_(cm-1)> (1)
63.3854101555509

>  <i_j_Num_Negative_Frequencies> (1)
0

>  <r_j_Zero_Point_Energy_(kcal/mol)> (1)
162.32165455643

>  <r_j_Entropy_(cal/mol/K)_298.15K_1.00E+00atm> (1)
112.866478288246

>  <r_j_Enthalpy_(kcal/mol)_298.15K_1.00E+00atm> (1)
8.87517880358129

>  <r_j_Free_Energy_(kcal/mol)_298.15K_1.00E+00atm> (1)
-24.7759616980592

>  <r_j_Internal_Energy_(kcal/mol)_298.15K_1.00E+00atm> (1)
8.28269321475402

>  <r_j_Heat_Capacity_(cal/mol/K)_298.15K_1.00E+00atm> (1)
47.7045081339288

>  <r_j_ln(Q)_298.15K_1.00E+00atm> (1)
41.8169862107516

>  <r_j_Total_Internal_Energy_(au)_298.15K_1.00E+00atm> (1)
-541.26776851487

>  <r_j_Total_Enthalpy_(au)_298.15K_1.00E+00atm> (1)
-541.266824328977

>  <r_j_Total_Free_Energy_(au)_298.15K_1.00E+00atm> (1)
-541.320450835206

>  <r_lp_tautomer_probability> (1)
1

>  <r_epik_Ionization_Penalty> (1)
  0.0000

>  <r_epik_Ionization_Penalty_Charging> (1)
  0.0000

>  <r_epik_Ionization_Penalty_Neutral> (1)
  0.0000

>  <r_epik_State_Penalty> (1)
  0.0000

>  <r_epik_Charging_Adjusted_Penalty> (1)
0

>  <i_epik_Tot_Q> (1)
0

>  <i_epik_Tot_abs_Q> (1)
0

>  <s_lp_Force_Field> (1)
S-OPLS

>  <r_lp_Energy> (1)
5.449018

>  <b_lp_Chiralities_Consistent> (1)
1

$$$$
