8181_Methyl palmitate
                    3D
 Schrodinger Suite 2021-3.
 53 52  0  0  1  0            999 V2000
   -7.1626   -0.2562    3.9244 C   0  0  0  0  0  0
   -6.4596    0.5340    2.8166 C   0  0  0  0  0  0
   -4.9431    0.3095    2.7871 C   0  0  0  0  0  0
   -4.2330    1.0953    1.6791 C   0  0  0  0  0  0
   -2.7169    0.8703    1.6428 C   0  0  0  0  0  0
   -2.0209    1.6507    0.5199 C   0  0  0  0  0  0
   -0.4914    1.5089    0.4949 C   0  0  0  0  0  0
    0.0094    0.0835    0.2245 C   0  0  0  0  0  0
    1.5337    0.0066    0.0631 C   0  0  0  0  0  0
    2.0866   -1.4196   -0.0813 C   0  0  0  0  0  0
    1.6010   -2.1673   -1.3301 C   0  0  0  0  0  0
    2.2399   -3.5518   -1.4898 C   0  0  0  0  0  0
    1.7344   -4.3131   -2.7200 C   0  0  0  0  0  0
    2.3796   -5.6957   -2.8765 C   0  0  0  0  0  0
    1.8655   -6.4724   -4.0918 C   0  0  0  0  0  0
    2.3036   -5.8669   -5.4111 C   0  0  0  0  0  0
    3.1562   -5.0159   -5.5531 O   0  0  0  0  0  0
    1.6281   -6.4201   -6.4448 O   0  0  0  0  0  0
    1.9993   -5.9346   -7.7468 C   0  0  0  0  0  0
   -8.2431   -0.0786    3.9231 H   0  0  0  0  0  0
   -6.7796    0.0242    4.9125 H   0  0  0  0  0  0
   -7.0015   -1.3336    3.8029 H   0  0  0  0  0  0
   -6.8842    0.2580    1.8416 H   0  0  0  0  0  0
   -6.6635    1.6061    2.9429 H   0  0  0  0  0  0
   -4.5159    0.5861    3.7618 H   0  0  0  0  0  0
   -4.7378   -0.7636    2.6616 H   0  0  0  0  0  0
   -4.6633    0.8183    0.7058 H   0  0  0  0  0  0
   -4.4390    2.1680    1.8051 H   0  0  0  0  0  0
   -2.2810    1.1600    2.6101 H   0  0  0  0  0  0
   -2.5188   -0.2037    1.5305 H   0  0  0  0  0  0
   -2.4292    1.3281   -0.4489 H   0  0  0  0  0  0
   -2.2783    2.7143    0.6170 H   0  0  0  0  0  0
   -0.0870    2.1775   -0.2773 H   0  0  0  0  0  0
   -0.0766    1.8636    1.4494 H   0  0  0  0  0  0
   -0.2957   -0.5828    1.0425 H   0  0  0  0  0  0
   -0.4823   -0.2992   -0.6798 H   0  0  0  0  0  0
    1.8351    0.6036   -0.8097 H   0  0  0  0  0  0
    2.0059    0.4834    0.9330 H   0  0  0  0  0  0
    3.1841   -1.3752   -0.1000 H   0  0  0  0  0  0
    1.8223   -2.0023    0.8130 H   0  0  0  0  0  0
    0.5095   -2.2808   -1.2961 H   0  0  0  0  0  0
    1.8163   -1.5624   -2.2228 H   0  0  0  0  0  0
    3.3319   -3.4440   -1.5538 H   0  0  0  0  0  0
    2.0461   -4.1472   -0.5855 H   0  0  0  0  0  0
    0.6423   -4.4268   -2.6539 H   0  0  0  0  0  0
    1.9353   -3.7228   -3.6218 H   0  0  0  0  0  0
    3.4660   -5.5811   -2.9650 H   0  0  0  0  0  0
    2.1927   -6.2927   -1.9752 H   0  0  0  0  0  0
    2.2326   -7.5069   -4.0827 H   0  0  0  0  0  0
    0.7717   -6.5452   -4.0933 H   0  0  0  0  0  0
    1.3811   -6.4858   -8.4555 H   0  0  0  0  0  0
    3.0602   -6.1155   -7.9389 H   0  0  0  0  0  0
    1.8095   -4.8607   -7.8256 H   0  0  0  0  0  0
  1  2  1  0  0  0
  1 20  1  0  0  0
  1 21  1  0  0  0
  1 22  1  0  0  0
  2  3  1  0  0  0
  2 23  1  0  0  0
  2 24  1  0  0  0
  3  4  1  0  0  0
  3 25  1  0  0  0
  3 26  1  0  0  0
  4  5  1  0  0  0
  4 27  1  0  0  0
  4 28  1  0  0  0
  5  6  1  0  0  0
  5 29  1  0  0  0
  5 30  1  0  0  0
  6  7  1  0  0  0
  6 31  1  0  0  0
  6 32  1  0  0  0
  7  8  1  0  0  0
  7 33  1  0  0  0
  7 34  1  0  0  0
  8  9  1  0  0  0
  8 35  1  0  0  0
  8 36  1  0  0  0
  9 10  1  0  0  0
  9 37  1  0  0  0
  9 38  1  0  0  0
 10 11  1  0  0  0
 10 39  1  0  0  0
 10 40  1  0  0  0
 11 12  1  0  0  0
 11 41  1  0  0  0
 11 42  1  0  0  0
 12 13  1  0  0  0
 12 43  1  0  0  0
 12 44  1  0  0  0
 13 14  1  0  0  0
 13 45  1  0  0  0
 13 46  1  0  0  0
 14 15  1  0  0  0
 14 47  1  0  0  0
 14 48  1  0  0  0
 15 16  1  0  0  0
 15 49  1  0  0  0
 15 50  1  0  0  0
 16 17  2  0  0  0
 16 18  1  0  0  0
 18 19  1  0  0  0
 19 51  1  0  0  0
 19 52  1  0  0  0
 19 53  1  0  0  0
M  END
>  <i_m_Spin_multiplicity> (1)
1

>  <s_j_Task> (1)
Single Point

>  <s_j_QM_Method> (1)
DFT(b3lyp-d3)

>  <s_j_QM_Basis> (1)
cc-pvtz(-f)

>  <i_j_Number_of_canonical_orbitals> (1)
738

>  <i_j_Geometry_convergence_category> (1)
0

>  <r_j_Gas_Phase_Energy> (1)
-819.105613267745

>  <r_j_Final_Energy> (1)
-819.105613267745

>  <r_j_HOMO> (1)
-0.281816793412218

>  <r_j_LUMO> (1)
-0.00197409402961071

>  <r_j_Polarizability> (1)
214.897994565289

>  <r_j_QM_Dipole_(debye)> (1)
1.53610789319421

>  <r_j_QM_Dipole_X_(debye)> (1)
-1.03285855678491

>  <r_j_QM_Dipole_Y_(debye)> (1)
-1.04446800724196

>  <r_j_QM_Dipole_Z_(debye)> (1)
-0.449352025763506

>  <r_j_Lowest_Frequency_(cm-1)> (1)
22.6581079833256

>  <r_j_Highest_Frequency_(cm-1)> (1)
3108.1584735088

>  <r_j_2nd_Lowest_Frequency_(cm-1)> (1)
37.5437578932486

>  <i_j_Num_Negative_Frequencies> (1)
0

>  <r_j_Zero_Point_Energy_(kcal/mol)> (1)
306.788707315533

>  <r_j_Entropy_(cal/mol/K)_298.15K_1.00E+00atm> (1)
154.964425989893

>  <r_j_Enthalpy_(kcal/mol)_298.15K_1.00E+00atm> (1)
14.6863369520199

>  <r_j_Free_Energy_(kcal/mol)_298.15K_1.00E+00atm> (1)
-31.5163066568666

>  <r_j_Internal_Energy_(kcal/mol)_298.15K_1.00E+00atm> (1)
14.0938513631926

>  <r_j_Heat_Capacity_(cal/mol/K)_298.15K_1.00E+00atm> (1)
85.2916921924747

>  <r_j_ln(Q)_298.15K_1.00E+00atm> (1)
53.1933725497827

>  <r_j_Total_Internal_Energy_(au)_298.15K_1.00E+00atm> (1)
-818.59425435761

>  <r_j_Total_Enthalpy_(au)_298.15K_1.00E+00atm> (1)
-818.593310171718

>  <r_j_Total_Free_Energy_(au)_298.15K_1.00E+00atm> (1)
-818.666938771473

>  <r_lp_tautomer_probability> (1)
1

>  <r_epik_Ionization_Penalty> (1)
  0.0000

>  <r_epik_Ionization_Penalty_Charging> (1)
  0.0000

>  <r_epik_Ionization_Penalty_Neutral> (1)
  0.0000

>  <r_epik_State_Penalty> (1)
  0.0000

>  <r_epik_Charging_Adjusted_Penalty> (1)
0

>  <i_epik_Tot_Q> (1)
0

>  <i_epik_Tot_abs_Q> (1)
0

>  <s_lp_Force_Field> (1)
S-OPLS

>  <r_lp_Energy> (1)
7.038305

>  <b_lp_Chiralities_Consistent> (1)
1

>  <s_epik_Chemistry_Notes> (1)
This compound has an ester and may undergo hydrolysis at high or low pH.

$$$$
