81828_1-tert-butyl-4-ethylbenzene
                    3D
 Schrodinger Suite 2021-3.
 30 30  0  0  1  0            999 V2000
   -0.6442    1.4560    0.0507 C   0  0  0  0  0  0
   -0.0991    0.0173    0.0150 C   0  0  0  0  0  0
    1.4131   -0.0226   -0.0074 C   0  0  0  0  0  0
    2.1235   -0.0239   -1.2096 C   0  0  0  0  0  0
    3.5199   -0.0142   -1.2297 C   0  0  0  0  0  0
    4.2669   -0.0021   -0.0457 C   0  0  0  0  0  0
    3.5460    0.0020    1.1603 C   0  0  0  0  0  0
    2.1549   -0.0082    1.1803 C   0  0  0  0  0  0
    5.8055   -0.0006   -0.0187 C   0  0  0  0  0  0
    6.3061    1.2656    0.7146 C   0  0  0  0  0  0
    6.4165   -0.0096   -1.4316 C   0  0  0  0  0  0
    6.3057   -1.2578    0.7304 C   0  0  0  0  0  0
   -1.7393    1.4655    0.0679 H   0  0  0  0  0  0
   -0.3104    2.0188   -0.8273 H   0  0  0  0  0  0
   -0.2835    1.9853    0.9389 H   0  0  0  0  0  0
   -0.4692   -0.5316    0.8896 H   0  0  0  0  0  0
   -0.4949   -0.4991   -0.8677 H   0  0  0  0  0  0
    1.5788   -0.0358   -2.1512 H   0  0  0  0  0  0
    4.0193   -0.0210   -2.1919 H   0  0  0  0  0  0
    4.0793    0.0081    2.1068 H   0  0  0  0  0  0
    1.6336   -0.0079    2.1353 H   0  0  0  0  0  0
    7.4015    1.2796    0.7491 H   0  0  0  0  0  0
    5.9401    1.3097    1.7445 H   0  0  0  0  0  0
    5.9687    2.1716    0.2007 H   0  0  0  0  0  0
    6.1210    0.8743   -2.0063 H   0  0  0  0  0  0
    6.1212   -0.9010   -1.9947 H   0  0  0  0  0  0
    7.5092   -0.0091   -1.3618 H   0  0  0  0  0  0
    7.4012   -1.2747    0.7619 H   0  0  0  0  0  0
    5.9641   -2.1698    0.2301 H   0  0  0  0  0  0
    5.9425   -1.2868    1.7618 H   0  0  0  0  0  0
  1  2  1  0  0  0
  1 13  1  0  0  0
  1 14  1  0  0  0
  1 15  1  0  0  0
  2  3  1  0  0  0
  2 16  1  0  0  0
  2 17  1  0  0  0
  3  8  1  0  0  0
  3  4  2  0  0  0
  4  5  1  0  0  0
  4 18  1  0  0  0
  5  6  2  0  0  0
  5 19  1  0  0  0
  6  7  1  0  0  0
  6  9  1  0  0  0
  7  8  2  0  0  0
  7 20  1  0  0  0
  8 21  1  0  0  0
  9 10  1  0  0  0
  9 11  1  0  0  0
  9 12  1  0  0  0
 10 22  1  0  0  0
 10 23  1  0  0  0
 10 24  1  0  0  0
 11 25  1  0  0  0
 11 26  1  0  0  0
 11 27  1  0  0  0
 12 28  1  0  0  0
 12 29  1  0  0  0
 12 30  1  0  0  0
M  END
>  <i_m_Spin_multiplicity> (1)
1

>  <s_j_Task> (1)
Single Point

>  <s_j_QM_Method> (1)
DFT(b3lyp-d3)

>  <s_j_QM_Basis> (1)
cc-pvtz(-f)

>  <i_j_Number_of_canonical_orbitals> (1)
431

>  <i_j_Geometry_convergence_category> (1)
1

>  <r_j_Gas_Phase_Energy> (1)
-468.312241912172

>  <r_j_Final_Energy> (1)
-468.312241912172

>  <r_j_HOMO> (1)
-0.234771938488434

>  <r_j_LUMO> (1)
-0.00928991837337962

>  <r_j_Polarizability> (1)
141.425483748775

>  <r_j_QM_Dipole_(debye)> (1)
0.0461039652804279

>  <r_j_QM_Dipole_X_(debye)> (1)
0.00387190577985352

>  <r_j_QM_Dipole_Y_(debye)> (1)
0.0362461796068917

>  <r_j_QM_Dipole_Z_(debye)> (1)
0.028227618109146

>  <r_j_Lowest_Frequency_(cm-1)> (1)
76.1695484227892

>  <r_j_Highest_Frequency_(cm-1)> (1)
3155.28897450762

>  <r_j_2nd_Lowest_Frequency_(cm-1)> (1)
81.3954141006886

>  <i_j_Num_Negative_Frequencies> (1)
0

>  <r_j_Zero_Point_Energy_(kcal/mol)> (1)
168.571323918182

>  <r_j_Entropy_(cal/mol/K)_298.15K_1.00E+00atm> (1)
104.651419867456

>  <r_j_Enthalpy_(kcal/mol)_298.15K_1.00E+00atm> (1)
8.11969891019018

>  <r_j_Free_Energy_(kcal/mol)_298.15K_1.00E+00atm> (1)
-23.0821219232919

>  <r_j_Internal_Energy_(kcal/mol)_298.15K_1.00E+00atm> (1)
7.5272133213629

>  <r_j_Heat_Capacity_(cal/mol/K)_298.15K_1.00E+00atm> (1)
48.7844317069349

>  <r_j_ln(Q)_298.15K_1.00E+00atm> (1)
38.9581153678

>  <r_j_Total_Internal_Energy_(au)_298.15K_1.00E+00atm> (1)
-468.031611028243

>  <r_j_Total_Enthalpy_(au)_298.15K_1.00E+00atm> (1)
-468.030666842351

>  <r_j_Total_Free_Energy_(au)_298.15K_1.00E+00atm> (1)
-468.08039010921

>  <r_lp_tautomer_probability> (1)
1

>  <r_epik_Ionization_Penalty> (1)
  0.0000

>  <r_epik_Ionization_Penalty_Charging> (1)
  0.0000

>  <r_epik_Ionization_Penalty_Neutral> (1)
  0.0000

>  <r_epik_State_Penalty> (1)
  0.0000

>  <r_epik_Charging_Adjusted_Penalty> (1)
0

>  <i_epik_Tot_Q> (1)
0

>  <i_epik_Tot_abs_Q> (1)
0

>  <s_lp_Force_Field> (1)
S-OPLS

>  <r_lp_Energy> (1)
11.5451

>  <b_lp_Chiralities_Consistent> (1)
1

$$$$
