8182_N-dodecane
                    3D
 Schrodinger Suite 2021-3.
 38 37  0  0  1  0            999 V2000
   -2.9014    5.2139   -1.2374 C   0  0  0  0  0  0
   -2.2547    3.8257   -1.2679 C   0  0  0  0  0  0
   -2.5998    2.9821   -0.0324 C   0  0  0  0  0  0
   -2.0400    1.5516   -0.0609 C   0  0  0  0  0  0
   -0.5081    1.4682   -0.0305 C   0  0  0  0  0  0
    0.0201    0.0291   -0.0006 C   0  0  0  0  0  0
    1.5507   -0.0536    0.0160 C   0  0  0  0  0  0
    2.0885   -1.4890    0.0252 C   0  0  0  0  0  0
    3.6197   -1.5621    0.0353 C   0  0  0  0  0  0
    4.1663   -2.9940    0.0315 C   0  0  0  0  0  0
    5.6984   -3.0605    0.0396 C   0  0  0  0  0  0
    6.2377   -4.4938    0.0308 C   0  0  0  0  0  0
   -2.6418    5.7992   -2.1258 H   0  0  0  0  0  0
   -2.5748    5.7806   -0.3577 H   0  0  0  0  0  0
   -3.9942    5.1395   -1.1936 H   0  0  0  0  0  0
   -2.5763    3.2885   -2.1711 H   0  0  0  0  0  0
   -1.1666    3.9372   -1.3516 H   0  0  0  0  0  0
   -2.2366    3.4966    0.8693 H   0  0  0  0  0  0
   -3.6930    2.9347    0.0666 H   0  0  0  0  0  0
   -2.4409    0.9946    0.7968 H   0  0  0  0  0  0
   -2.4124    1.0356   -0.9578 H   0  0  0  0  0  0
   -0.0880    1.9810   -0.9056 H   0  0  0  0  0  0
   -0.1335    2.0125    0.8488 H   0  0  0  0  0  0
   -0.3832   -0.4905    0.8804 H   0  0  0  0  0  0
   -0.3636   -0.5161   -0.8750 H   0  0  0  0  0  0
    1.9513    0.4769   -0.8599 H   0  0  0  0  0  0
    1.9340    0.4839    0.8952 H   0  0  0  0  0  0
    1.6923   -2.0215    0.9017 H   0  0  0  0  0  0
    1.7047   -2.0263   -0.8540 H   0  0  0  0  0  0
    4.0138   -1.0216   -0.8374 H   0  0  0  0  0  0
    4.0025   -1.0296    0.9179 H   0  0  0  0  0  0
    3.7746   -3.5365    0.9041 H   0  0  0  0  0  0
    3.7847   -3.5270   -0.8514 H   0  0  0  0  0  0
    6.0879   -2.5157   -0.8314 H   0  0  0  0  0  0
    6.0782   -2.5296    0.9233 H   0  0  0  0  0  0
    7.3325   -4.5129    0.0370 H   0  0  0  0  0  0
    5.8993   -5.0363   -0.8596 H   0  0  0  0  0  0
    5.8890   -5.0512    0.9079 H   0  0  0  0  0  0
  1  2  1  0  0  0
  1 13  1  0  0  0
  1 14  1  0  0  0
  1 15  1  0  0  0
  2  3  1  0  0  0
  2 16  1  0  0  0
  2 17  1  0  0  0
  3  4  1  0  0  0
  3 18  1  0  0  0
  3 19  1  0  0  0
  4  5  1  0  0  0
  4 20  1  0  0  0
  4 21  1  0  0  0
  5  6  1  0  0  0
  5 22  1  0  0  0
  5 23  1  0  0  0
  6  7  1  0  0  0
  6 24  1  0  0  0
  6 25  1  0  0  0
  7  8  1  0  0  0
  7 26  1  0  0  0
  7 27  1  0  0  0
  8  9  1  0  0  0
  8 28  1  0  0  0
  8 29  1  0  0  0
  9 10  1  0  0  0
  9 30  1  0  0  0
  9 31  1  0  0  0
 10 11  1  0  0  0
 10 32  1  0  0  0
 10 33  1  0  0  0
 11 12  1  0  0  0
 11 34  1  0  0  0
 11 35  1  0  0  0
 12 36  1  0  0  0
 12 37  1  0  0  0
 12 38  1  0  0  0
M  END
>  <i_m_Spin_multiplicity> (1)
1

>  <s_j_Task> (1)
Single Point

>  <s_j_QM_Method> (1)
DFT(b3lyp-d3)

>  <s_j_QM_Basis> (1)
cc-pvtz(-f)

>  <i_j_Number_of_canonical_orbitals> (1)
506

>  <i_j_Geometry_convergence_category> (1)
3

>  <r_j_Gas_Phase_Energy> (1)
-473.158025427116

>  <r_j_Final_Energy> (1)
-473.158025427116

>  <r_j_HOMO> (1)
-0.292574820468932

>  <r_j_LUMO> (1)
0.017900591011614

>  <r_j_Polarizability> (1)
150.485881131685

>  <r_j_QM_Dipole_(debye)> (1)
0.0295003052054219

>  <r_j_QM_Dipole_X_(debye)> (1)
0.0254523343839184

>  <r_j_QM_Dipole_Y_(debye)> (1)
0.00922556404107505

>  <r_j_QM_Dipole_Z_(debye)> (1)
-0.0117190293858438

>  <r_j_Lowest_Frequency_(cm-1)> (1)
47.9679532158521

>  <r_j_Highest_Frequency_(cm-1)> (1)
3046.02779756624

>  <r_j_2nd_Lowest_Frequency_(cm-1)> (1)
64.3171081812105

>  <i_j_Num_Negative_Frequencies> (1)
0

>  <r_j_Zero_Point_Energy_(kcal/mol)> (1)
225.618532810362

>  <r_j_Entropy_(cal/mol/K)_298.15K_1.00E+00atm> (1)
120.89806143554

>  <r_j_Enthalpy_(kcal/mol)_298.15K_1.00E+00atm> (1)
10.1113186910728

>  <r_j_Free_Energy_(kcal/mol)_298.15K_1.00E+00atm> (1)
-25.9344383259335

>  <r_j_Internal_Energy_(kcal/mol)_298.15K_1.00E+00atm> (1)
9.51883310224553

>  <r_j_Heat_Capacity_(cal/mol/K)_298.15K_1.00E+00atm> (1)
57.0898223031311

>  <r_j_ln(Q)_298.15K_1.00E+00atm> (1)
43.7722685833867

>  <r_j_Total_Internal_Energy_(au)_298.15K_1.00E+00atm> (1)
-472.783310180328

>  <r_j_Total_Enthalpy_(au)_298.15K_1.00E+00atm> (1)
-472.782365994436

>  <r_j_Total_Free_Energy_(au)_298.15K_1.00E+00atm> (1)
-472.839808565011

>  <r_lp_tautomer_probability> (1)
1

>  <r_epik_Ionization_Penalty> (1)
  0.0000

>  <r_epik_Ionization_Penalty_Charging> (1)
  0.0000

>  <r_epik_Ionization_Penalty_Neutral> (1)
  0.0000

>  <r_epik_State_Penalty> (1)
  0.0000

>  <r_epik_Charging_Adjusted_Penalty> (1)
0

>  <i_epik_Tot_Q> (1)
0

>  <i_epik_Tot_abs_Q> (1)
0

>  <s_lp_Force_Field> (1)
S-OPLS

>  <r_lp_Energy> (1)
5.504938

>  <b_lp_Chiralities_Consistent> (1)
1

$$$$
