8183_Dodecene
                    3D
 Schrodinger Suite 2021-3.
 36 35  0  0  1  0            999 V2000
   -4.3547    1.1228    1.3102 C   0  0  0  0  0  0
   -2.8319    0.9579    1.3224 C   0  0  0  0  0  0
   -2.1620    1.5381    0.0693 C   0  0  0  0  0  0
   -0.6272    1.4644    0.0746 C   0  0  0  0  0  0
   -0.0623    0.0383    0.0617 C   0  0  0  0  0  0
    1.4679   -0.0092   -0.0176 C   0  0  0  0  0  0
    2.0243   -1.4375   -0.0190 C   0  0  0  0  0  0
    3.5542   -1.4962   -0.1160 C   0  0  0  0  0  0
    4.1380   -2.9144   -0.0259 C   0  0  0  0  0  0
    3.7210   -3.8399   -1.1863 C   0  0  0  0  0  0
    4.3936   -5.1828   -1.1218 C   0  0  0  0  0  0
    3.7680   -6.3524   -0.9903 C   0  0  0  0  0  0
   -4.8129    0.7020    2.2113 H   0  0  0  0  0  0
   -4.7979    0.6177    0.4441 H   0  0  0  0  0  0
   -4.6373    2.1804    1.2542 H   0  0  0  0  0  0
   -2.4142    1.4483    2.2127 H   0  0  0  0  0  0
   -2.5854   -0.1067    1.4179 H   0  0  0  0  0  0
   -2.5474    1.0172   -0.8193 H   0  0  0  0  0  0
   -2.4682    2.5876   -0.0393 H   0  0  0  0  0  0
   -0.2417    2.0050   -0.8006 H   0  0  0  0  0  0
   -0.2413    1.9987    0.9547 H   0  0  0  0  0  0
   -0.3875   -0.5012    0.9607 H   0  0  0  0  0  0
   -0.4873   -0.5104   -0.7915 H   0  0  0  0  0  0
    1.8031    0.5137   -0.9248 H   0  0  0  0  0  0
    1.8948    0.5486    0.8282 H   0  0  0  0  0  0
    1.7009   -1.9547    0.8960 H   0  0  0  0  0  0
    1.5751   -1.9906   -0.8541 H   0  0  0  0  0  0
    3.8764   -1.0291   -1.0578 H   0  0  0  0  0  0
    3.9843   -0.8848    0.6887 H   0  0  0  0  0  0
    5.2340   -2.8507   -0.0006 H   0  0  0  0  0  0
    3.8374   -3.3779    0.9231 H   0  0  0  0  0  0
    2.6337   -3.9762   -1.1906 H   0  0  0  0  0  0
    3.9797   -3.3451   -2.1349 H   0  0  0  0  0  0
    5.4836   -5.1681   -1.1737 H   0  0  0  0  0  0
    2.6836   -6.4136   -0.9303 H   0  0  0  0  0  0
    4.3120   -7.2910   -0.9382 H   0  0  0  0  0  0
  1  2  1  0  0  0
  1 13  1  0  0  0
  1 14  1  0  0  0
  1 15  1  0  0  0
  2  3  1  0  0  0
  2 16  1  0  0  0
  2 17  1  0  0  0
  3  4  1  0  0  0
  3 18  1  0  0  0
  3 19  1  0  0  0
  4  5  1  0  0  0
  4 20  1  0  0  0
  4 21  1  0  0  0
  5  6  1  0  0  0
  5 22  1  0  0  0
  5 23  1  0  0  0
  6  7  1  0  0  0
  6 24  1  0  0  0
  6 25  1  0  0  0
  7  8  1  0  0  0
  7 26  1  0  0  0
  7 27  1  0  0  0
  8  9  1  0  0  0
  8 28  1  0  0  0
  8 29  1  0  0  0
  9 10  1  0  0  0
  9 30  1  0  0  0
  9 31  1  0  0  0
 10 11  1  0  0  0
 10 32  1  0  0  0
 10 33  1  0  0  0
 11 12  2  0  0  0
 11 34  1  0  0  0
 12 35  1  0  0  0
 12 36  1  0  0  0
M  END
>  <i_m_Spin_multiplicity> (1)
1

>  <s_j_Task> (1)
Single Point

>  <s_j_QM_Method> (1)
DFT(b3lyp-d3)

>  <s_j_QM_Basis> (1)
cc-pvtz(-f)

>  <i_j_Number_of_canonical_orbitals> (1)
488

>  <i_j_Geometry_convergence_category> (1)
3

>  <r_j_Gas_Phase_Energy> (1)
-471.91905222332

>  <r_j_Final_Energy> (1)
-471.91905222332

>  <r_j_HOMO> (1)
-0.281461501003518

>  <r_j_LUMO> (1)
-0.0145879299566646

>  <r_j_Polarizability> (1)
148.067157323824

>  <r_j_QM_Dipole_(debye)> (1)
0.46196078878421

>  <r_j_QM_Dipole_X_(debye)> (1)
0.0530292399874431

>  <r_j_QM_Dipole_Y_(debye)> (1)
0.455204784818044

>  <r_j_QM_Dipole_Z_(debye)> (1)
0.0581745129695242

>  <r_j_Lowest_Frequency_(cm-1)> (1)
48.7146350172187

>  <r_j_Highest_Frequency_(cm-1)> (1)
3167.38272480727

>  <r_j_2nd_Lowest_Frequency_(cm-1)> (1)
73.6835853770125

>  <i_j_Num_Negative_Frequencies> (1)
0

>  <r_j_Zero_Point_Energy_(kcal/mol)> (1)
211.015392735136

>  <r_j_Entropy_(cal/mol/K)_298.15K_1.00E+00atm> (1)
118.908052166486

>  <r_j_Enthalpy_(kcal/mol)_298.15K_1.00E+00atm> (1)
9.74569520579138

>  <r_j_Free_Energy_(kcal/mol)_298.15K_1.00E+00atm> (1)
-25.7067405476464

>  <r_j_Internal_Energy_(kcal/mol)_298.15K_1.00E+00atm> (1)
9.15320961696411

>  <r_j_Heat_Capacity_(cal/mol/K)_298.15K_1.00E+00atm> (1)
55.1668200195502

>  <r_j_ln(Q)_298.15K_1.00E+00atm> (1)
43.3879591882202

>  <r_j_Total_Internal_Energy_(au)_298.15K_1.00E+00atm> (1)
-471.568191219817

>  <r_j_Total_Enthalpy_(au)_298.15K_1.00E+00atm> (1)
-471.567247033925

>  <r_j_Total_Free_Energy_(au)_298.15K_1.00E+00atm> (1)
-471.623744086875

>  <r_lp_tautomer_probability> (1)
1

>  <r_epik_Ionization_Penalty> (1)
  0.0000

>  <r_epik_Ionization_Penalty_Charging> (1)
  0.0000

>  <r_epik_Ionization_Penalty_Neutral> (1)
  0.0000

>  <r_epik_State_Penalty> (1)
  0.0000

>  <r_epik_Charging_Adjusted_Penalty> (1)
0

>  <i_epik_Tot_Q> (1)
0

>  <i_epik_Tot_abs_Q> (1)
0

>  <s_lp_Force_Field> (1)
S-OPLS

>  <r_lp_Energy> (1)
3.381325

>  <b_lp_Chiralities_Consistent> (1)
1

$$$$
