8186_Undecanal
                    3D
 Schrodinger Suite 2021-3.
 34 33  0  0  1  0            999 V2000
   -4.1986    3.0823   -0.0065 C   0  0  0  0  0  0
   -2.6693    3.0034   -0.0265 C   0  0  0  0  0  0
   -2.1418    1.5639   -0.0108 C   0  0  0  0  0  0
   -0.6119    1.4766   -0.0313 C   0  0  0  0  0  0
   -0.0809    0.0391   -0.0060 C   0  0  0  0  0  0
    1.4494   -0.0429   -0.0252 C   0  0  0  0  0  0
    1.9833   -1.4790    0.0173 C   0  0  0  0  0  0
    3.5157   -1.5522    0.0079 C   0  0  0  0  0  0
    4.0846   -2.9774   -0.0139 C   0  0  0  0  0  0
    3.7694   -3.7873    1.2452 C   0  0  0  0  0  0
    4.4048   -5.1575    1.2655 C   0  0  0  0  0  0
    5.1003   -5.6075    0.3806 O   0  0  0  0  0  0
   -4.5490    4.1196   -0.0170 H   0  0  0  0  0  0
   -4.6061    2.6013    0.8903 H   0  0  0  0  0  0
   -4.6306    2.5750   -0.8769 H   0  0  0  0  0  0
   -2.2854    3.5187   -0.9176 H   0  0  0  0  0  0
   -2.2611    3.5465    0.8369 H   0  0  0  0  0  0
   -2.5244    1.0472    0.8814 H   0  0  0  0  0  0
   -2.5498    1.0180   -0.8738 H   0  0  0  0  0  0
   -0.2306    1.9890   -0.9262 H   0  0  0  0  0  0
   -0.2053    2.0280    0.8287 H   0  0  0  0  0  0
   -0.4612   -0.4727    0.8898 H   0  0  0  0  0  0
   -0.4859   -0.5146   -0.8652 H   0  0  0  0  0  0
    1.8301    0.4606   -0.9252 H   0  0  0  0  0  0
    1.8538    0.5190    0.8291 H   0  0  0  0  0  0
    1.5875   -1.9763    0.9133 H   0  0  0  0  0  0
    1.5892   -2.0417   -0.8413 H   0  0  0  0  0  0
    3.8897   -1.0120   -0.8719 H   0  0  0  0  0  0
    3.9096   -1.0144    0.8826 H   0  0  0  0  0  0
    3.7049   -3.5191   -0.8887 H   0  0  0  0  0  0
    5.1724   -2.9412   -0.1380 H   0  0  0  0  0  0
    4.0989   -3.2595    2.1544 H   0  0  0  0  0  0
    2.6880   -3.9334    1.3836 H   0  0  0  0  0  0
    4.1889   -5.7597    2.1793 H   0  0  0  0  0  0
  1  2  1  0  0  0
  1 13  1  0  0  0
  1 14  1  0  0  0
  1 15  1  0  0  0
  2  3  1  0  0  0
  2 16  1  0  0  0
  2 17  1  0  0  0
  3  4  1  0  0  0
  3 18  1  0  0  0
  3 19  1  0  0  0
  4  5  1  0  0  0
  4 20  1  0  0  0
  4 21  1  0  0  0
  5  6  1  0  0  0
  5 22  1  0  0  0
  5 23  1  0  0  0
  6  7  1  0  0  0
  6 24  1  0  0  0
  6 25  1  0  0  0
  7  8  1  0  0  0
  7 26  1  0  0  0
  7 27  1  0  0  0
  8  9  1  0  0  0
  8 28  1  0  0  0
  8 29  1  0  0  0
  9 10  1  0  0  0
  9 30  1  0  0  0
  9 31  1  0  0  0
 10 11  1  0  0  0
 10 32  1  0  0  0
 10 33  1  0  0  0
 11 12  2  0  0  0
 11 34  1  0  0  0
M  END
>  <i_m_Spin_multiplicity> (1)
1

>  <s_j_Task> (1)
Single Point

>  <s_j_QM_Method> (1)
DFT(b3lyp-d3)

>  <s_j_QM_Basis> (1)
cc-pvtz(-f)

>  <i_j_Number_of_canonical_orbitals> (1)
471

>  <i_j_Geometry_convergence_category> (1)
3

>  <r_j_Gas_Phase_Energy> (1)
-507.856436416827

>  <r_j_Final_Energy> (1)
-507.856436416827

>  <r_j_HOMO> (1)
-0.291586877437371

>  <r_j_LUMO> (1)
-0.0623587031393738

>  <r_j_Polarizability> (1)
137.970828310362

>  <r_j_QM_Dipole_(debye)> (1)
2.69472335107001

>  <r_j_QM_Dipole_X_(debye)> (1)
-1.57338365062263

>  <r_j_QM_Dipole_Y_(debye)> (1)
1.64623974762668

>  <r_j_QM_Dipole_Z_(debye)> (1)
1.44079579402824

>  <r_j_Lowest_Frequency_(cm-1)> (1)
48.733311313987

>  <r_j_Highest_Frequency_(cm-1)> (1)
3046.6031961559

>  <r_j_2nd_Lowest_Frequency_(cm-1)> (1)
74.494246956929

>  <i_j_Num_Negative_Frequencies> (1)
0

>  <r_j_Zero_Point_Energy_(kcal/mol)> (1)
195.753147898692

>  <r_j_Entropy_(cal/mol/K)_298.15K_1.00E+00atm> (1)
118.156106063317

>  <r_j_Enthalpy_(kcal/mol)_298.15K_1.00E+00atm> (1)
9.63633072817049

>  <r_j_Free_Energy_(kcal/mol)_298.15K_1.00E+00atm> (1)
-25.5919122946075

>  <r_j_Internal_Energy_(kcal/mol)_298.15K_1.00E+00atm> (1)
9.04384513934322

>  <r_j_Heat_Capacity_(cal/mol/K)_298.15K_1.00E+00atm> (1)
53.473784474071

>  <r_j_ln(Q)_298.15K_1.00E+00atm> (1)
43.1941515155877

>  <r_j_Total_Internal_Energy_(au)_298.15K_1.00E+00atm> (1)
-507.530071632184

>  <r_j_Total_Enthalpy_(au)_298.15K_1.00E+00atm> (1)
-507.529127446291

>  <r_j_Total_Free_Energy_(au)_298.15K_1.00E+00atm> (1)
-507.585267225382

>  <r_lp_tautomer_probability> (1)
1

>  <r_epik_Ionization_Penalty> (1)
  0.0000

>  <r_epik_Ionization_Penalty_Charging> (1)
  0.0000

>  <r_epik_Ionization_Penalty_Neutral> (1)
  0.0000

>  <r_epik_State_Penalty> (1)
  0.0000

>  <r_epik_Charging_Adjusted_Penalty> (1)
0

>  <i_epik_Tot_Q> (1)
0

>  <i_epik_Tot_abs_Q> (1)
0

>  <s_lp_Force_Field> (1)
S-OPLS

>  <r_lp_Energy> (1)
3.977295

>  <b_lp_Chiralities_Consistent> (1)
1

$$$$
