8194_Dodecanal
                    3D
 Schrodinger Suite 2021-3.
 37 36  0  0  1  0            999 V2000
   -0.9585    5.9597   -2.6132 C   0  0  0  0  0  0
   -0.3098    4.5726   -2.5844 C   0  0  0  0  0  0
   -0.6827    3.7599   -1.3387 C   0  0  0  0  0  0
   -0.0460    2.3658   -1.3105 C   0  0  0  0  0  0
   -0.4114    1.5574   -0.0583 C   0  0  0  0  0  0
    0.1195    0.1155   -0.0572 C   0  0  0  0  0  0
    1.6492   -0.0004   -0.0256 C   0  0  0  0  0  0
    2.1387   -1.4525    0.0191 C   0  0  0  0  0  0
    3.6656   -1.5784    0.0478 C   0  0  0  0  0  0
    4.1475   -3.0348    0.0582 C   0  0  0  0  0  0
    5.6828   -3.1652    0.0873 C   0  0  0  0  0  0
    6.2600   -2.6593    1.3897 C   0  0  0  0  0  0
    7.0980   -1.7910    1.4904 O   0  0  0  0  0  0
   -0.6748    6.5187   -3.5110 H   0  0  0  0  0  0
   -0.6585    6.5532   -1.7418 H   0  0  0  0  0  0
   -2.0519    5.8836   -2.5990 H   0  0  0  0  0  0
   -0.6022    4.0111   -3.4823 H   0  0  0  0  0  0
    0.7828    4.6761   -2.6340 H   0  0  0  0  0  0
   -0.3827    4.3164   -0.4390 H   0  0  0  0  0  0
   -1.7766    3.6624   -1.2827 H   0  0  0  0  0  0
   -0.3574    1.8065   -2.2048 H   0  0  0  0  0  0
    1.0444    2.4715   -1.3832 H   0  0  0  0  0  0
   -0.0407    2.0827    0.8335 H   0  0  0  0  0  0
   -1.5053    1.5316    0.0382 H   0  0  0  0  0  0
   -0.2923   -0.4159    0.8116 H   0  0  0  0  0  0
   -0.2636   -0.4104   -0.9438 H   0  0  0  0  0  0
    2.0811    0.4924   -0.9062 H   0  0  0  0  0  0
    2.0364    0.5435    0.8481 H   0  0  0  0  0  0
    1.7154   -1.9540    0.9012 H   0  0  0  0  0  0
    1.7464   -1.9936   -0.8540 H   0  0  0  0  0  0
    4.0940   -1.0644   -0.8239 H   0  0  0  0  0  0
    4.0588   -1.0510    0.9281 H   0  0  0  0  0  0
    3.7213   -3.5580    0.9260 H   0  0  0  0  0  0
    3.7645   -3.5553   -0.8278 H   0  0  0  0  0  0
    5.9606   -4.2251   -0.0060 H   0  0  0  0  0  0
    6.1497   -2.6152   -0.7359 H   0  0  0  0  0  0
    5.8369   -3.1510    2.2991 H   0  0  0  0  0  0
  1  2  1  0  0  0
  1 14  1  0  0  0
  1 15  1  0  0  0
  1 16  1  0  0  0
  2  3  1  0  0  0
  2 17  1  0  0  0
  2 18  1  0  0  0
  3  4  1  0  0  0
  3 19  1  0  0  0
  3 20  1  0  0  0
  4  5  1  0  0  0
  4 21  1  0  0  0
  4 22  1  0  0  0
  5  6  1  0  0  0
  5 23  1  0  0  0
  5 24  1  0  0  0
  6  7  1  0  0  0
  6 25  1  0  0  0
  6 26  1  0  0  0
  7  8  1  0  0  0
  7 27  1  0  0  0
  7 28  1  0  0  0
  8  9  1  0  0  0
  8 29  1  0  0  0
  8 30  1  0  0  0
  9 10  1  0  0  0
  9 31  1  0  0  0
  9 32  1  0  0  0
 10 11  1  0  0  0
 10 33  1  0  0  0
 10 34  1  0  0  0
 11 12  1  0  0  0
 11 35  1  0  0  0
 11 36  1  0  0  0
 12 13  2  0  0  0
 12 37  1  0  0  0
M  END
>  <i_m_Spin_multiplicity> (1)
1

>  <s_j_Task> (1)
Single Point

>  <s_j_QM_Method> (1)
DFT(b3lyp-d3)

>  <s_j_QM_Basis> (1)
cc-pvtz(-f)

>  <i_j_Number_of_canonical_orbitals> (1)
512

>  <i_j_Geometry_convergence_category> (1)
0

>  <r_j_Gas_Phase_Energy> (1)
-547.184692469513

>  <r_j_Final_Energy> (1)
-547.184692469513

>  <r_j_HOMO> (1)
-0.277930717079427

>  <r_j_LUMO> (1)
-0.0534004193125885

>  <r_j_Polarizability> (1)
149.799106646587

>  <r_j_QM_Dipole_(debye)> (1)
2.85144641375895

>  <r_j_QM_Dipole_X_(debye)> (1)
-2.17429375465785

>  <r_j_QM_Dipole_Y_(debye)> (1)
-1.64063826934985

>  <r_j_QM_Dipole_Z_(debye)> (1)
-0.84350423125162

>  <r_j_Lowest_Frequency_(cm-1)> (1)
40.7199013070448

>  <r_j_Highest_Frequency_(cm-1)> (1)
3047.0232213746

>  <r_j_2nd_Lowest_Frequency_(cm-1)> (1)
67.275280999194

>  <i_j_Num_Negative_Frequencies> (1)
0

>  <r_j_Zero_Point_Energy_(kcal/mol)> (1)
213.799746325677

>  <r_j_Entropy_(cal/mol/K)_298.15K_1.00E+00atm> (1)
123.893940888519

>  <r_j_Enthalpy_(kcal/mol)_298.15K_1.00E+00atm> (1)
10.3526747180862

>  <r_j_Free_Energy_(kcal/mol)_298.15K_1.00E+00atm> (1)
-26.5863037578257

>  <r_j_Internal_Energy_(kcal/mol)_298.15K_1.00E+00atm> (1)
9.76018912925892

>  <r_j_Heat_Capacity_(cal/mol/K)_298.15K_1.00E+00atm> (1)
58.1643271497506

>  <r_j_ln(Q)_298.15K_1.00E+00atm> (1)
44.8724901654551

>  <r_j_Total_Internal_Energy_(au)_298.15K_1.00E+00atm> (1)
-546.828427032667

>  <r_j_Total_Enthalpy_(au)_298.15K_1.00E+00atm> (1)
-546.827482846775

>  <r_j_Total_Free_Energy_(au)_298.15K_1.00E+00atm> (1)
-546.88634885636

>  <r_lp_tautomer_probability> (1)
1

>  <r_epik_Ionization_Penalty> (1)
  0.0000

>  <r_epik_Ionization_Penalty_Charging> (1)
  0.0000

>  <r_epik_Ionization_Penalty_Neutral> (1)
  0.0000

>  <r_epik_State_Penalty> (1)
  0.0000

>  <r_epik_Charging_Adjusted_Penalty> (1)
0

>  <i_epik_Tot_Q> (1)
0

>  <i_epik_Tot_abs_Q> (1)
0

>  <s_lp_Force_Field> (1)
S-OPLS

>  <r_lp_Energy> (1)
5.147389

>  <b_lp_Chiralities_Consistent> (1)
1

$$$$
