8201_Methyl octadecanoate
                    3D
 Schrodinger Suite 2021-3.
 59 58  0  0  1  0            999 V2000
   -1.4355    9.1496   -3.3250 C   0  0  0  0  0  0
   -1.6632    8.0690   -4.3886 C   0  0  0  0  0  0
   -0.8365    6.7912   -4.1742 C   0  0  0  0  0  0
   -1.1879    6.0107   -2.9004 C   0  0  0  0  0  0
   -0.4229    4.6875   -2.7769 C   0  0  0  0  0  0
   -0.7760    3.8904   -1.5159 C   0  0  0  0  0  0
   -0.0427    2.5471   -1.4224 C   0  0  0  0  0  0
   -0.4110    1.7403   -0.1699 C   0  0  0  0  0  0
    0.2041    0.3330   -0.1186 C   0  0  0  0  0  0
    1.7338    0.3067    0.0024 C   0  0  0  0  0  0
    2.2970   -1.1190    0.0790 C   0  0  0  0  0  0
    3.8295   -1.1976    0.1560 C   0  0  0  0  0  0
    4.4279   -0.6357    1.4524 C   0  0  0  0  0  0
    5.9493   -0.8044    1.5363 C   0  0  0  0  0  0
    6.5457   -0.2714    2.8438 C   0  0  0  0  0  0
    8.0655   -0.4459    2.9265 C   0  0  0  0  0  0
    8.6458    0.0775    4.2536 C   0  0  0  0  0  0
   10.1492   -0.0744    4.3211 C   0  0  0  0  0  0
   10.9546    0.8311    4.3337 O   0  0  0  0  0  0
   10.5029   -1.3834    4.3421 O   0  0  0  0  0  0
   11.9187   -1.6317    4.3712 C   0  0  0  0  0  0
   -2.0002   10.0587   -3.5567 H   0  0  0  0  0  0
   -0.3752    9.4222   -3.2643 H   0  0  0  0  0  0
   -1.7476    8.8136   -2.3309 H   0  0  0  0  0  0
   -2.7296    7.8062   -4.4208 H   0  0  0  0  0  0
   -1.4229    8.4835   -5.3760 H   0  0  0  0  0  0
   -0.9745    6.1304   -5.0409 H   0  0  0  0  0  0
    0.2323    7.0496   -4.1570 H   0  0  0  0  0  0
   -0.9853    6.6259   -2.0140 H   0  0  0  0  0  0
   -2.2687    5.8069   -2.8885 H   0  0  0  0  0  0
   -0.6249    4.0691   -3.6634 H   0  0  0  0  0  0
    0.6580    4.8889   -2.7900 H   0  0  0  0  0  0
   -0.5485    4.4942   -0.6256 H   0  0  0  0  0  0
   -1.8610    3.7132   -1.4913 H   0  0  0  0  0  0
   -0.2716    1.9479   -2.3159 H   0  0  0  0  0  0
    1.0399    2.7278   -1.4484 H   0  0  0  0  0  0
   -0.1124    2.3028    0.7265 H   0  0  0  0  0  0
   -1.5046    1.6497   -0.1195 H   0  0  0  0  0  0
   -0.2244   -0.2129    0.7331 H   0  0  0  0  0  0
   -0.0974   -0.2245   -1.0173 H   0  0  0  0  0  0
    2.1886    0.8206   -0.8549 H   0  0  0  0  0  0
    2.0286    0.8782    0.8926 H   0  0  0  0  0  0
    1.8644   -1.6344    0.9488 H   0  0  0  0  0  0
    1.9562   -1.6778   -0.8032 H   0  0  0  0  0  0
    4.1373   -2.2472    0.0536 H   0  0  0  0  0  0
    4.2651   -0.6691   -0.7043 H   0  0  0  0  0  0
    4.1808    0.4294    1.5502 H   0  0  0  0  0  0
    3.9590   -1.1367    2.3118 H   0  0  0  0  0  0
    6.2048   -1.8682    1.4289 H   0  0  0  0  0  0
    6.4204   -0.2923    0.6852 H   0  0  0  0  0  0
    6.2935    0.7928    2.9540 H   0  0  0  0  0  0
    6.0747   -0.7851    3.6941 H   0  0  0  0  0  0
    8.3275   -1.5047    2.8174 H   0  0  0  0  0  0
    8.5425    0.0830    2.0909 H   0  0  0  0  0  0
    8.4209    1.1389    4.3849 H   0  0  0  0  0  0
    8.2005   -0.4758    5.0889 H   0  0  0  0  0  0
   12.0293   -2.7162    4.3770 H   0  0  0  0  0  0
   12.3686   -1.1948    5.2668 H   0  0  0  0  0  0
   12.4044   -1.1998    3.4921 H   0  0  0  0  0  0
  1  2  1  0  0  0
  1 22  1  0  0  0
  1 23  1  0  0  0
  1 24  1  0  0  0
  2  3  1  0  0  0
  2 25  1  0  0  0
  2 26  1  0  0  0
  3  4  1  0  0  0
  3 27  1  0  0  0
  3 28  1  0  0  0
  4  5  1  0  0  0
  4 29  1  0  0  0
  4 30  1  0  0  0
  5  6  1  0  0  0
  5 31  1  0  0  0
  5 32  1  0  0  0
  6  7  1  0  0  0
  6 33  1  0  0  0
  6 34  1  0  0  0
  7  8  1  0  0  0
  7 35  1  0  0  0
  7 36  1  0  0  0
  8  9  1  0  0  0
  8 37  1  0  0  0
  8 38  1  0  0  0
  9 10  1  0  0  0
  9 39  1  0  0  0
  9 40  1  0  0  0
 10 11  1  0  0  0
 10 41  1  0  0  0
 10 42  1  0  0  0
 11 12  1  0  0  0
 11 43  1  0  0  0
 11 44  1  0  0  0
 12 13  1  0  0  0
 12 45  1  0  0  0
 12 46  1  0  0  0
 13 14  1  0  0  0
 13 47  1  0  0  0
 13 48  1  0  0  0
 14 15  1  0  0  0
 14 49  1  0  0  0
 14 50  1  0  0  0
 15 16  1  0  0  0
 15 51  1  0  0  0
 15 52  1  0  0  0
 16 17  1  0  0  0
 16 53  1  0  0  0
 16 54  1  0  0  0
 17 18  1  0  0  0
 17 55  1  0  0  0
 17 56  1  0  0  0
 18 19  2  0  0  0
 18 20  1  0  0  0
 20 21  1  0  0  0
 21 57  1  0  0  0
 21 58  1  0  0  0
 21 59  1  0  0  0
M  END
>  <i_m_Spin_multiplicity> (1)
1

>  <s_j_Task> (1)
Single Point

>  <s_j_QM_Method> (1)
DFT(b3lyp-d3)

>  <s_j_QM_Basis> (1)
cc-pvtz(-f)

>  <i_j_Number_of_canonical_orbitals> (1)
819

>  <i_j_Geometry_convergence_category> (1)
1

>  <r_j_Gas_Phase_Energy> (1)
-897.76214487183

>  <r_j_Final_Energy> (1)
-897.76214487183

>  <r_j_HOMO> (1)
-0.253337691463517

>  <r_j_LUMO> (1)
-0.0203137175079001

>  <r_j_Polarizability> (1)
240.9664735596

>  <r_j_QM_Dipole_(debye)> (1)
2.0519451893186

>  <r_j_QM_Dipole_X_(debye)> (1)
-1.01106067458309

>  <r_j_QM_Dipole_Y_(debye)> (1)
-1.74900908962739

>  <r_j_QM_Dipole_Z_(debye)> (1)
-0.359447599352257

>  <r_j_Lowest_Frequency_(cm-1)> (1)
19.3167773938613

>  <r_j_Highest_Frequency_(cm-1)> (1)
3107.11546693709

>  <r_j_2nd_Lowest_Frequency_(cm-1)> (1)
39.0111846740404

>  <i_j_Num_Negative_Frequencies> (1)
0

>  <r_j_Zero_Point_Energy_(kcal/mol)> (1)
342.652042392575

>  <r_j_Entropy_(cal/mol/K)_298.15K_1.00E+00atm> (1)
166.672883038915

>  <r_j_Enthalpy_(kcal/mol)_298.15K_1.00E+00atm> (1)
16.2613152795826

>  <r_j_Free_Energy_(kcal/mol)_298.15K_1.00E+00atm> (1)
-33.4322047984698

>  <r_j_Internal_Energy_(kcal/mol)_298.15K_1.00E+00atm> (1)
15.6688296907553

>  <r_j_Heat_Capacity_(cal/mol/K)_298.15K_1.00E+00atm> (1)
94.7037045056129

>  <r_j_ln(Q)_298.15K_1.00E+00atm> (1)
56.4270345623819

>  <r_j_Total_Internal_Energy_(au)_298.15K_1.00E+00atm> (1)
-897.191124211244

>  <r_j_Total_Enthalpy_(au)_298.15K_1.00E+00atm> (1)
-897.190180025352

>  <r_j_Total_Free_Energy_(au)_298.15K_1.00E+00atm> (1)
-897.269371690902

>  <r_lp_tautomer_probability> (1)
1

>  <r_epik_Ionization_Penalty> (1)
  0.0000

>  <r_epik_Ionization_Penalty_Charging> (1)
  0.0000

>  <r_epik_Ionization_Penalty_Neutral> (1)
  0.0000

>  <r_epik_State_Penalty> (1)
  0.0000

>  <r_epik_Charging_Adjusted_Penalty> (1)
0

>  <i_epik_Tot_Q> (1)
0

>  <i_epik_Tot_abs_Q> (1)
0

>  <s_lp_Force_Field> (1)
S-OPLS

>  <r_lp_Energy> (1)
10.422872

>  <b_lp_Chiralities_Consistent> (1)
1

>  <s_epik_Chemistry_Notes> (1)
This compound has an ester and may undergo hydrolysis at high or low pH.

$$$$
