8202_Methyl cis-9-octadecenoate
                    3D
 Schrodinger Suite 2021-3.
 57 56  0  0  1  0            999 V2000
   -4.9861    8.4357   -1.9395 C   0  0  0  0  0  0
   -4.3519    7.0612   -2.1733 C   0  0  0  0  0  0
   -2.9062    6.9787   -1.6631 C   0  0  0  0  0  0
   -2.2002    5.6474   -1.9638 C   0  0  0  0  0  0
   -2.7917    4.4320   -1.2371 C   0  0  0  0  0  0
   -2.0530    3.1260   -1.5535 C   0  0  0  0  0  0
   -2.6400    1.9086   -0.8278 C   0  0  0  0  0  0
   -2.0159    0.5597   -1.2461 C   0  0  0  0  0  0
   -0.5482    0.4444   -0.9339 C   0  0  0  0  0  0
   -0.0124   -0.4193   -0.0676 C   0  0  0  0  0  0
    1.4483   -0.5271    0.2762 C   0  0  0  0  0  0
    1.7360   -0.2694    1.7699 C   0  0  0  0  0  0
    1.4424    1.1672    2.2165 C   0  0  0  0  0  0
    1.6990    1.3917    3.7107 C   0  0  0  0  0  0
    1.4430    2.8321    4.1666 C   0  0  0  0  0  0
    1.6904    3.0321    5.6668 C   0  0  0  0  0  0
    1.4502    4.4794    6.1421 C   0  0  0  0  0  0
    2.3883    5.4542    5.4632 C   0  0  0  0  0  0
    2.0758    6.2841    4.6370 O   0  0  0  0  0  0
    3.6663    5.2583    5.8724 O   0  0  0  0  0  0
    4.6444    6.1027    5.2418 C   0  0  0  0  0  0
   -6.0164    8.4725   -2.3087 H   0  0  0  0  0  0
   -4.4200    9.2236   -2.4498 H   0  0  0  0  0  0
   -5.0054    8.6840   -0.8720 H   0  0  0  0  0  0
   -4.9647    6.2934   -1.6851 H   0  0  0  0  0  0
   -4.3674    6.8259   -3.2467 H   0  0  0  0  0  0
   -2.3282    7.7968   -2.1144 H   0  0  0  0  0  0
   -2.8933    7.1624   -0.5790 H   0  0  0  0  0  0
   -2.2222    5.4651   -3.0482 H   0  0  0  0  0  0
   -1.1393    5.7367   -1.6938 H   0  0  0  0  0  0
   -2.7694    4.6125   -0.1526 H   0  0  0  0  0  0
   -3.8501    4.3139   -1.5036 H   0  0  0  0  0  0
   -2.0829    2.9493   -2.6389 H   0  0  0  0  0  0
   -0.9925    3.2393   -1.2927 H   0  0  0  0  0  0
   -2.5225    2.0369    0.2565 H   0  0  0  0  0  0
   -3.7207    1.8657   -1.0206 H   0  0  0  0  0  0
   -2.5590   -0.2558   -0.7529 H   0  0  0  0  0  0
   -2.1719    0.4295   -2.3276 H   0  0  0  0  0  0
    0.1156    1.1325   -1.4589 H   0  0  0  0  0  0
   -0.6734   -1.1099    0.4617 H   0  0  0  0  0  0
    1.8075   -1.5347    0.0231 H   0  0  0  0  0  0
    2.0293    0.1748   -0.3363 H   0  0  0  0  0  0
    1.1404   -0.9675    2.3756 H   0  0  0  0  0  0
    2.7877   -0.5072    1.9779 H   0  0  0  0  0  0
    2.0614    1.8613    1.6298 H   0  0  0  0  0  0
    0.4007    1.4182    1.9777 H   0  0  0  0  0  0
    1.0657    0.7074    4.2938 H   0  0  0  0  0  0
    2.7369    1.1173    3.9485 H   0  0  0  0  0  0
    2.0825    3.5152    3.5911 H   0  0  0  0  0  0
    0.4094    3.1181    3.9268 H   0  0  0  0  0  0
    1.0328    2.3655    6.2384 H   0  0  0  0  0  0
    2.7197    2.7471    5.9149 H   0  0  0  0  0  0
    0.4303    4.7995    5.9145 H   0  0  0  0  0  0
    1.6041    4.5426    7.2246 H   0  0  0  0  0  0
    5.6041    5.8180    5.6730 H   0  0  0  0  0  0
    4.4304    7.1562    5.4407 H   0  0  0  0  0  0
    4.6470    5.9470    4.1595 H   0  0  0  0  0  0
  1  2  1  0  0  0
  1 22  1  0  0  0
  1 23  1  0  0  0
  1 24  1  0  0  0
  2  3  1  0  0  0
  2 25  1  0  0  0
  2 26  1  0  0  0
  3  4  1  0  0  0
  3 27  1  0  0  0
  3 28  1  0  0  0
  4  5  1  0  0  0
  4 29  1  0  0  0
  4 30  1  0  0  0
  5  6  1  0  0  0
  5 31  1  0  0  0
  5 32  1  0  0  0
  6  7  1  0  0  0
  6 33  1  0  0  0
  6 34  1  0  0  0
  7  8  1  0  0  0
  7 35  1  0  0  0
  7 36  1  0  0  0
  8  9  1  0  0  0
  8 37  1  0  0  0
  8 38  1  0  0  0
  9 10  2  0  0  0
  9 39  1  0  0  0
 10 11  1  0  0  0
 10 40  1  0  0  0
 11 12  1  0  0  0
 11 41  1  0  0  0
 11 42  1  0  0  0
 12 13  1  0  0  0
 12 43  1  0  0  0
 12 44  1  0  0  0
 13 14  1  0  0  0
 13 45  1  0  0  0
 13 46  1  0  0  0
 14 15  1  0  0  0
 14 47  1  0  0  0
 14 48  1  0  0  0
 15 16  1  0  0  0
 15 49  1  0  0  0
 15 50  1  0  0  0
 16 17  1  0  0  0
 16 51  1  0  0  0
 16 52  1  0  0  0
 17 18  1  0  0  0
 17 53  1  0  0  0
 17 54  1  0  0  0
 18 19  2  0  0  0
 18 20  1  0  0  0
 20 21  1  0  0  0
 21 55  1  0  0  0
 21 56  1  0  0  0
 21 57  1  0  0  0
M  END
>  <i_m_Spin_multiplicity> (1)
1

>  <s_j_Task> (1)
Single Point

>  <s_j_QM_Method> (1)
DFT(b3lyp-d3)

>  <s_j_QM_Basis> (1)
cc-pvtz(-f)

>  <i_j_Number_of_canonical_orbitals> (1)
801

>  <i_j_Geometry_convergence_category> (1)
3

>  <r_j_Gas_Phase_Energy> (1)
-896.529836744579

>  <r_j_Final_Energy> (1)
-896.529836744579

>  <r_j_HOMO> (1)
-0.238775267094679

>  <r_j_LUMO> (1)
-0.00123872595262861

>  <r_j_Polarizability> (1)
237.750547609517

>  <r_j_QM_Dipole_(debye)> (1)
1.78541334521971

>  <r_j_QM_Dipole_X_(debye)> (1)
0.966496098331757

>  <r_j_QM_Dipole_Y_(debye)> (1)
-1.206976803223

>  <r_j_QM_Dipole_Z_(debye)> (1)
0.892632680154454

>  <r_j_Lowest_Frequency_(cm-1)> (1)
14.0092475328072

>  <r_j_Highest_Frequency_(cm-1)> (1)
3108.57771092926

>  <r_j_2nd_Lowest_Frequency_(cm-1)> (1)
35.8600268344954

>  <i_j_Num_Negative_Frequencies> (1)
0

>  <r_j_Zero_Point_Energy_(kcal/mol)> (1)
327.83181087464

>  <r_j_Entropy_(cal/mol/K)_298.15K_1.00E+00atm> (1)
163.161638201956

>  <r_j_Enthalpy_(kcal/mol)_298.15K_1.00E+00atm> (1)
15.9012433874931

>  <r_j_Free_Energy_(kcal/mol)_298.15K_1.00E+00atm> (1)
-32.7453990424202

>  <r_j_Internal_Energy_(kcal/mol)_298.15K_1.00E+00atm> (1)
15.3087577986658

>  <r_j_Heat_Capacity_(cal/mol/K)_298.15K_1.00E+00atm> (1)
93.1666274922791

>  <r_j_ln(Q)_298.15K_1.00E+00atm> (1)
55.2678405347111

>  <r_j_Total_Internal_Energy_(au)_298.15K_1.00E+00atm> (1)
-895.983007437488

>  <r_j_Total_Enthalpy_(au)_298.15K_1.00E+00atm> (1)
-895.982063251595

>  <r_j_Total_Free_Energy_(au)_298.15K_1.00E+00atm> (1)
-896.05958661141

>  <r_lp_tautomer_probability> (1)
1

>  <r_epik_Ionization_Penalty> (1)
  0.0000

>  <r_epik_Ionization_Penalty_Charging> (1)
  0.0000

>  <r_epik_Ionization_Penalty_Neutral> (1)
  0.0000

>  <r_epik_State_Penalty> (1)
  0.0000

>  <r_epik_Charging_Adjusted_Penalty> (1)
0

>  <i_epik_Tot_Q> (1)
0

>  <i_epik_Tot_abs_Q> (1)
0

>  <s_lp_Force_Field> (1)
S-OPLS

>  <r_lp_Energy> (1)
2.567296

>  <b_lp_Chiralities_Consistent> (1)
1

>  <s_epik_Chemistry_Notes> (1)
This compound has an ester and may undergo hydrolysis at high or low pH.

$$$$
