8215_Docosanoic acid
                    3D
 Schrodinger Suite 2021-3.
 67 66  0  0  1  0            999 V2000
  -10.9027    2.7485   -2.6021 C   0  0  0  0  0  0
   -9.3716    2.7080   -2.6076 C   0  0  0  0  0  0
   -8.7406    3.5661   -1.5042 C   0  0  0  0  0  0
   -7.2083    3.5227   -1.5068 C   0  0  0  0  0  0
   -6.5708    4.3612   -0.3906 C   0  0  0  0  0  0
   -5.0339    4.3924   -0.4215 C   0  0  0  0  0  0
   -4.3690    3.0294   -0.1889 C   0  0  0  0  0  0
   -2.8368    3.0879   -0.1678 C   0  0  0  0  0  0
   -2.1904    1.7097    0.0139 C   0  0  0  0  0  0
   -0.6574    1.7300    0.0028 C   0  0  0  0  0  0
   -0.0429    0.3312    0.1300 C   0  0  0  0  0  0
    1.4896    0.3155    0.0933 C   0  0  0  0  0  0
    2.0733   -1.1009    0.1583 C   0  0  0  0  0  0
    3.6048   -1.1444    0.1096 C   0  0  0  0  0  0
    4.1598   -2.5754    0.1122 C   0  0  0  0  0  0
    5.6904   -2.6663    0.0086 C   0  0  0  0  0  0
    6.4452   -2.1278    1.2307 C   0  0  0  0  0  0
    7.9672   -2.2874    1.1178 C   0  0  0  0  0  0
    8.7383   -1.8335    2.3690 C   0  0  0  0  0  0
    8.6024   -0.3418    2.7014 C   0  0  0  0  0  0
    9.4101    0.1119    3.9173 C   0  0  0  0  0  0
    9.0520    1.5712    4.4065 C   0  0  0  0  0  0
    7.8777    1.9505    4.1527 O   0  0  0  0  0  0
    9.9718    2.1636    5.0200 O   0  5  0  0  0  0
  -11.3257    2.1266   -3.3983 H   0  0  0  0  0  0
  -11.2707    3.7711   -2.7461 H   0  0  0  0  0  0
  -11.3028    2.3865   -1.6479 H   0  0  0  0  0  0
   -9.0313    1.6695   -2.4950 H   0  0  0  0  0  0
   -8.9980    3.0442   -3.5845 H   0  0  0  0  0  0
   -9.0789    4.6067   -1.6139 H   0  0  0  0  0  0
   -9.1130    3.2291   -0.5259 H   0  0  0  0  0  0
   -6.8847    2.4776   -1.4186 H   0  0  0  0  0  0
   -6.8359    3.8741   -2.4802 H   0  0  0  0  0  0
   -6.9510    5.3898   -0.4596 H   0  0  0  0  0  0
   -6.9063    3.9787    0.5843 H   0  0  0  0  0  0
   -4.6999    4.7970   -1.3879 H   0  0  0  0  0  0
   -4.6761    5.0970    0.3413 H   0  0  0  0  0  0
   -4.7310    2.6078    0.7603 H   0  0  0  0  0  0
   -4.6819    2.3251   -0.9709 H   0  0  0  0  0  0
   -2.4781    3.5362   -1.1057 H   0  0  0  0  0  0
   -2.5042    3.7604    0.6356 H   0  0  0  0  0  0
   -2.5410    1.2658    0.9568 H   0  0  0  0  0  0
   -2.5459    1.0404   -0.7834 H   0  0  0  0  0  0
   -0.3069    2.1972   -0.9289 H   0  0  0  0  0  0
   -0.2911    2.3692    0.8183 H   0  0  0  0  0  0
   -0.3884   -0.1333    1.0649 H   0  0  0  0  0  0
   -0.4289   -0.3038   -0.6814 H   0  0  0  0  0  0
    1.8364    0.8085   -0.8263 H   0  0  0  0  0  0
    1.8846    0.9146    0.9251 H   0  0  0  0  0  0
    1.7260   -1.5943    1.0777 H   0  0  0  0  0  0
    1.6662   -1.6949   -0.6740 H   0  0  0  0  0  0
    3.9556   -0.6244   -0.7938 H   0  0  0  0  0  0
    4.0102   -0.5820    0.9593 H   0  0  0  0  0  0
    3.8291   -3.0883    1.0274 H   0  0  0  0  0  0
    3.7073   -3.1275   -0.7247 H   0  0  0  0  0  0
    5.9726   -3.7175   -0.1477 H   0  0  0  0  0  0
    6.0236   -2.1287   -0.8916 H   0  0  0  0  0  0
    6.2066   -1.0706    1.3856 H   0  0  0  0  0  0
    6.0931   -2.6527    2.1314 H   0  0  0  0  0  0
    8.1972   -3.3426    0.9018 H   0  0  0  0  0  0
    8.3212   -1.7149    0.2472 H   0  0  0  0  0  0
    8.4007   -2.4292    3.2315 H   0  0  0  0  0  0
    9.8016   -2.0814    2.2349 H   0  0  0  0  0  0
    8.8993    0.2504    1.8219 H   0  0  0  0  0  0
    7.5619   -0.0655    2.9040 H   0  0  0  0  0  0
    9.2081   -0.5714    4.7590 H   0  0  0  0  0  0
   10.4905    0.0534    3.7299 H   0  0  0  0  0  0
  1  2  1  0  0  0
  1 25  1  0  0  0
  1 26  1  0  0  0
  1 27  1  0  0  0
  2  3  1  0  0  0
  2 28  1  0  0  0
  2 29  1  0  0  0
  3  4  1  0  0  0
  3 30  1  0  0  0
  3 31  1  0  0  0
  4  5  1  0  0  0
  4 32  1  0  0  0
  4 33  1  0  0  0
  5  6  1  0  0  0
  5 34  1  0  0  0
  5 35  1  0  0  0
  6  7  1  0  0  0
  6 36  1  0  0  0
  6 37  1  0  0  0
  7  8  1  0  0  0
  7 38  1  0  0  0
  7 39  1  0  0  0
  8  9  1  0  0  0
  8 40  1  0  0  0
  8 41  1  0  0  0
  9 10  1  0  0  0
  9 42  1  0  0  0
  9 43  1  0  0  0
 10 11  1  0  0  0
 10 44  1  0  0  0
 10 45  1  0  0  0
 11 12  1  0  0  0
 11 46  1  0  0  0
 11 47  1  0  0  0
 12 13  1  0  0  0
 12 48  1  0  0  0
 12 49  1  0  0  0
 13 14  1  0  0  0
 13 50  1  0  0  0
 13 51  1  0  0  0
 14 15  1  0  0  0
 14 52  1  0  0  0
 14 53  1  0  0  0
 15 16  1  0  0  0
 15 54  1  0  0  0
 15 55  1  0  0  0
 16 17  1  0  0  0
 16 56  1  0  0  0
 16 57  1  0  0  0
 17 18  1  0  0  0
 17 58  1  0  0  0
 17 59  1  0  0  0
 18 19  1  0  0  0
 18 60  1  0  0  0
 18 61  1  0  0  0
 19 20  1  0  0  0
 19 62  1  0  0  0
 19 63  1  0  0  0
 20 21  1  0  0  0
 20 64  1  0  0  0
 20 65  1  0  0  0
 21 22  1  0  0  0
 21 66  1  0  0  0
 21 67  1  0  0  0
 22 23  2  0  0  0
 22 24  1  0  0  0
M  END
>  <s_lp_Force_Field> (1)
S-OPLS

>  <r_lp_Energy> (1)
14.896465

>  <b_lp_Chiralities_Consistent> (1)
1

>  <r_epik_Ionization_Penalty> (1)
  0.0049

>  <r_epik_Ionization_Penalty_Charging> (1)
  0.0049

>  <r_epik_Ionization_Penalty_Neutral> (1)
  0.0000

>  <r_epik_State_Penalty> (1)
  0.0035

>  <r_epik_Charging_Adjusted_Penalty> (1)
0.00839777765143097

>  <i_epik_Tot_Q> (1)
-1

>  <i_epik_Tot_abs_Q> (1)
1

>  <i_m_Spin_multiplicity> (1)
1

>  <s_j_Task> (1)
Single Point

>  <s_j_QM_Method> (1)
DFT(b3lyp-d3)

>  <s_j_QM_Basis> (1)
6-31g**

>  <i_j_Number_of_canonical_orbitals> (1)
575

>  <i_j_Geometry_convergence_category> (1)
2

>  <r_j_Gas_Phase_Energy> (1)
-1014.89416488891

>  <r_j_Final_Energy> (1)
-1014.89416488891

>  <r_j_HOMO> (1)
-0.0058436613397953

>  <r_j_LUMO> (1)
0.123941208562837

>  <r_j_Polarizability> (1)
250.262294044706

>  <r_j_QM_Dipole_(debye)> (1)
39.9117643007173

>  <r_j_QM_Dipole_X_(debye)> (1)
-35.9693452925252

>  <r_j_QM_Dipole_Y_(debye)> (1)
-3.39359252731784

>  <r_j_QM_Dipole_Z_(debye)> (1)
-16.959913283435

>  <r_j_Lowest_Frequency_(cm-1)> (1)
-16.3286706671677

>  <r_j_Highest_Frequency_(cm-1)> (1)
3104.65178420871

>  <r_j_2nd_Lowest_Frequency_(cm-1)> (1)
10.679267637453

>  <i_j_Num_Negative_Frequencies> (1)
1

>  <r_j_Zero_Point_Energy_(kcal/mol)> (1)
390.241723508754

>  <r_j_Entropy_(cal/mol/K)_298.15K_1.00E+00atm> (1)
183.899569821133

>  <r_j_Enthalpy_(kcal/mol)_298.15K_1.00E+00atm> (1)
18.4158203089354

>  <r_j_Free_Energy_(kcal/mol)_298.15K_1.00E+00atm> (1)
-36.4138364332356

>  <r_j_Internal_Energy_(kcal/mol)_298.15K_1.00E+00atm> (1)
17.8233347201081

>  <r_j_Heat_Capacity_(cal/mol/K)_298.15K_1.00E+00atm> (1)
106.52194626593

>  <r_j_ln(Q)_298.15K_1.00E+00atm> (1)
61.4594466429312

>  <r_j_Total_Internal_Energy_(au)_298.15K_1.00E+00atm> (1)
-1014.24387182125

>  <r_j_Total_Enthalpy_(au)_298.15K_1.00E+00atm> (1)
-1014.24292763536

>  <r_j_Total_Free_Energy_(au)_298.15K_1.00E+00atm> (1)
-1014.33030425574

$$$$
