8252_Propylene
                    3D
 Schrodinger Suite 2021-3.
  9  8  0  0  1  0            999 V2000
   -0.0135    0.0135    0.0000 C   0  0  0  0  0  0
    1.4981   -0.0365    0.0000 C   0  0  0  0  0  0
    2.2210   -1.1568    0.0000 C   0  0  0  0  0  0
   -0.3845    1.0423    0.0000 H   0  0  0  0  0  0
   -0.4284   -0.4873    0.8823 H   0  0  0  0  0  0
   -0.4284   -0.4873   -0.8823 H   0  0  0  0  0  0
    2.0189    0.9212    0.0000 H   0  0  0  0  0  0
    1.7530   -2.1396    0.0000 H   0  0  0  0  0  0
    3.3070   -1.1342    0.0000 H   0  0  0  0  0  0
  1  2  1  0  0  0
  1  4  1  0  0  0
  1  5  1  0  0  0
  1  6  1  0  0  0
  2  3  2  0  0  0
  2  7  1  0  0  0
  3  8  1  0  0  0
  3  9  1  0  0  0
M  END
>  <i_m_Spin_multiplicity> (1)
1

>  <s_j_Task> (1)
Single Point

>  <s_j_QM_Method> (1)
DFT(b3lyp-d3)

>  <s_j_QM_Basis> (1)
cc-pvtz(-f)

>  <i_j_Number_of_canonical_orbitals> (1)
123

>  <i_j_Geometry_convergence_category> (1)
0

>  <r_j_Gas_Phase_Energy> (1)
-117.952859903058

>  <r_j_Final_Energy> (1)
-117.952859903058

>  <r_j_HOMO> (1)
-0.262350013426433

>  <r_j_LUMO> (1)
-0.00196115447168712

>  <r_j_Polarizability> (1)
36.895157289046

>  <r_j_QM_Dipole_(debye)> (1)
0.367306083214601

>  <r_j_QM_Dipole_X_(debye)> (1)
-0.33035439704646

>  <r_j_QM_Dipole_Y_(debye)> (1)
0.160560677328044

>  <r_j_QM_Dipole_Z_(debye)> (1)
-3.80539537289967e-06

>  <r_j_Lowest_Frequency_(cm-1)> (1)
-102.775509712177

>  <r_j_Highest_Frequency_(cm-1)> (1)
3164.56283801448

>  <r_j_2nd_Lowest_Frequency_(cm-1)> (1)
439.439086773759

>  <i_j_Num_Negative_Frequencies> (1)
1

>  <r_j_Zero_Point_Energy_(kcal/mol)> (1)
49.3543841478862

>  <r_j_Entropy_(cal/mol/K)_298.15K_1.00E+00atm> (1)
61.0581221067556

>  <r_j_Enthalpy_(kcal/mol)_298.15K_1.00E+00atm> (1)
2.78896299026032

>  <r_j_Free_Energy_(kcal/mol)_298.15K_1.00E+00atm> (1)
-15.4155161158689

>  <r_j_Internal_Energy_(kcal/mol)_298.15K_1.00E+00atm> (1)
2.19647740143304

>  <r_j_Heat_Capacity_(cal/mol/K)_298.15K_1.00E+00atm> (1)
11.0012854425582

>  <r_j_ln(Q)_298.15K_1.00E+00atm> (1)
26.0183815548683

>  <r_j_Total_Internal_Energy_(au)_298.15K_1.00E+00atm> (1)
-117.870708375449

>  <r_j_Total_Enthalpy_(au)_298.15K_1.00E+00atm> (1)
-117.869764189557

>  <r_j_Total_Free_Energy_(au)_298.15K_1.00E+00atm> (1)
-117.89877487382

>  <r_lp_tautomer_probability> (1)
1

>  <r_epik_Ionization_Penalty> (1)
  0.0000

>  <r_epik_Ionization_Penalty_Charging> (1)
  0.0000

>  <r_epik_Ionization_Penalty_Neutral> (1)
  0.0000

>  <r_epik_State_Penalty> (1)
  0.0000

>  <r_epik_Charging_Adjusted_Penalty> (1)
0

>  <i_epik_Tot_Q> (1)
0

>  <i_epik_Tot_abs_Q> (1)
0

>  <s_lp_Force_Field> (1)
S-OPLS

>  <r_lp_Energy> (1)
0.422549

>  <b_lp_Chiralities_Consistent> (1)
1

$$$$
