8254_Dimethyl ether
                    3D
 Schrodinger Suite 2021-3.
  9  8  0  0  1  0            999 V2000
   -0.0082    0.0037    0.0000 C   0  0  0  0  0  0
    1.4033    0.0366    0.0000 O   0  0  0  0  0  0
    1.9700   -1.2565    0.0000 C   0  0  0  0  0  0
   -0.3589    1.0389    0.0000 H   0  0  0  0  0  0
   -0.4088   -0.5060    0.8920 H   0  0  0  0  0  0
   -0.4088   -0.5060   -0.8920 H   0  0  0  0  0  0
    3.0565   -1.1369    0.0000 H   0  0  0  0  0  0
    1.6774   -1.8350   -0.8920 H   0  0  0  0  0  0
    1.6774   -1.8350    0.8920 H   0  0  0  0  0  0
  1  2  1  0  0  0
  1  4  1  0  0  0
  1  5  1  0  0  0
  1  6  1  0  0  0
  2  3  1  0  0  0
  3  7  1  0  0  0
  3  8  1  0  0  0
  3  9  1  0  0  0
M  END
>  <i_m_Spin_multiplicity> (1)
1

>  <s_j_Task> (1)
Single Point

>  <s_j_QM_Method> (1)
DFT(b3lyp-d3)

>  <s_j_QM_Basis> (1)
cc-pvtz(-f)

>  <i_j_Number_of_canonical_orbitals> (1)
123

>  <i_j_Geometry_convergence_category> (1)
0

>  <r_j_Gas_Phase_Energy> (1)
-155.089186787676

>  <r_j_Final_Energy> (1)
-155.089186787676

>  <r_j_HOMO> (1)
-0.265010258918474

>  <r_j_LUMO> (1)
0.0297669767077195

>  <r_j_Polarizability> (1)
31.5602800357795

>  <r_j_QM_Dipole_(debye)> (1)
1.21587512435195

>  <r_j_QM_Dipole_X_(debye)> (1)
-0.653467209518127

>  <r_j_QM_Dipole_Y_(debye)> (1)
-1.02534527067806

>  <r_j_QM_Dipole_Z_(debye)> (1)
-7.71543757444003e-07

>  <r_j_Lowest_Frequency_(cm-1)> (1)
279.528657257245

>  <r_j_Highest_Frequency_(cm-1)> (1)
3063.24922091779

>  <r_j_2nd_Lowest_Frequency_(cm-1)> (1)
301.973707560936

>  <i_j_Num_Negative_Frequencies> (1)
0

>  <r_j_Zero_Point_Energy_(kcal/mol)> (1)
49.758752667696

>  <r_j_Entropy_(cal/mol/K)_298.15K_1.00E+00atm> (1)
63.6585365121406

>  <r_j_Enthalpy_(kcal/mol)_298.15K_1.00E+00atm> (1)
3.18890970218737

>  <r_j_Free_Energy_(kcal/mol)_298.15K_1.00E+00atm> (1)
-15.7908829589074

>  <r_j_Internal_Energy_(kcal/mol)_298.15K_1.00E+00atm> (1)
2.59642411336009

>  <r_j_Heat_Capacity_(cal/mol/K)_298.15K_1.00E+00atm> (1)
12.692520199454

>  <r_j_ln(Q)_298.15K_1.00E+00atm> (1)
26.6519275011612

>  <r_j_Total_Internal_Energy_(au)_298.15K_1.00E+00atm> (1)
-155.00575350215

>  <r_j_Total_Enthalpy_(au)_298.15K_1.00E+00atm> (1)
-155.004809316258

>  <r_j_Total_Free_Energy_(au)_298.15K_1.00E+00atm> (1)
-155.035055541324

>  <r_lp_tautomer_probability> (1)
1

>  <r_epik_Ionization_Penalty> (1)
  0.0000

>  <r_epik_Ionization_Penalty_Charging> (1)
  0.0000

>  <r_epik_Ionization_Penalty_Neutral> (1)
  0.0000

>  <r_epik_State_Penalty> (1)
  0.0000

>  <r_epik_Charging_Adjusted_Penalty> (1)
0

>  <i_epik_Tot_Q> (1)
0

>  <i_epik_Tot_abs_Q> (1)
0

>  <s_lp_Force_Field> (1)
S-OPLS

>  <r_lp_Energy> (1)
1.59249

>  <b_lp_Chiralities_Consistent> (1)
1

$$$$
