8255_Isobutylene
                    3D
 Schrodinger Suite 2021-3.
 12 11  0  0  1  0            999 V2000
   -0.0147   -0.0155    0.0000 C   0  0  0  0  0  0
    1.5059   -0.0097    0.0000 C   0  0  0  0  0  0
    2.1960   -1.1547    0.0000 C   0  0  0  0  0  0
    2.2210    1.3323    0.0000 C   0  0  0  0  0  0
   -0.4295    0.9963    0.0000 H   0  0  0  0  0  0
   -0.4093   -0.5336    0.8813 H   0  0  0  0  0  0
   -0.4094   -0.5336   -0.8813 H   0  0  0  0  0  0
    1.6981   -2.1211    0.0000 H   0  0  0  0  0  0
    3.2832   -1.1658    0.0000 H   0  0  0  0  0  0
    1.5199    2.1715   -0.0001 H   0  0  0  0  0  0
    2.8635    1.4393   -0.8813 H   0  0  0  0  0  0
    2.8634    1.4394    0.8813 H   0  0  0  0  0  0
  1  2  1  0  0  0
  1  5  1  0  0  0
  1  6  1  0  0  0
  1  7  1  0  0  0
  2  3  2  0  0  0
  2  4  1  0  0  0
  3  8  1  0  0  0
  3  9  1  0  0  0
  4 10  1  0  0  0
  4 11  1  0  0  0
  4 12  1  0  0  0
M  END
>  <i_m_Spin_multiplicity> (1)
1

>  <s_j_Task> (1)
Single Point

>  <s_j_QM_Method> (1)
DFT(b3lyp-d3)

>  <s_j_QM_Basis> (1)
cc-pvtz(-f)

>  <i_j_Number_of_canonical_orbitals> (1)
163

>  <i_j_Geometry_convergence_category> (1)
0

>  <r_j_Gas_Phase_Energy> (1)
-157.283094576329

>  <r_j_Final_Energy> (1)
-157.283094576329

>  <r_j_HOMO> (1)
-0.244651692753815

>  <r_j_LUMO> (1)
0.000155831665678993

>  <r_j_Polarizability> (1)
48.768021974713

>  <r_j_QM_Dipole_(debye)> (1)
0.505720212725749

>  <r_j_QM_Dipole_X_(debye)> (1)
-0.261080956384579

>  <r_j_QM_Dipole_Y_(debye)> (1)
0.433116228938839

>  <r_j_QM_Dipole_Z_(debye)> (1)
-1.5779085834144e-06

>  <r_j_Lowest_Frequency_(cm-1)> (1)
-110.827540312089

>  <r_j_Highest_Frequency_(cm-1)> (1)
3160.07379118141

>  <r_j_2nd_Lowest_Frequency_(cm-1)> (1)
-87.6056053202847

>  <i_j_Num_Negative_Frequencies> (1)
2

>  <r_j_Zero_Point_Energy_(kcal/mol)> (1)
66.6950588947112

>  <r_j_Entropy_(cal/mol/K)_298.15K_1.00E+00atm> (1)
65.9078942316559

>  <r_j_Enthalpy_(kcal/mol)_298.15K_1.00E+00atm> (1)
3.14879734596284

>  <r_j_Free_Energy_(kcal/mol)_298.15K_1.00E+00atm> (1)
-16.5016413192054

>  <r_j_Internal_Energy_(kcal/mol)_298.15K_1.00E+00atm> (1)
2.55631175713556

>  <r_j_Heat_Capacity_(cal/mol/K)_298.15K_1.00E+00atm> (1)
14.4443257296715

>  <r_j_ln(Q)_298.15K_1.00E+00atm> (1)
27.851548848416

>  <r_j_Total_Internal_Energy_(au)_298.15K_1.00E+00atm> (1)
-157.172735491785

>  <r_j_Total_Enthalpy_(au)_298.15K_1.00E+00atm> (1)
-157.171791305893

>  <r_j_Total_Free_Energy_(au)_298.15K_1.00E+00atm> (1)
-157.203106273403

>  <r_lp_tautomer_probability> (1)
1

>  <r_epik_Ionization_Penalty> (1)
  0.0000

>  <r_epik_Ionization_Penalty_Charging> (1)
  0.0000

>  <r_epik_Ionization_Penalty_Neutral> (1)
  0.0000

>  <r_epik_State_Penalty> (1)
  0.0000

>  <r_epik_Charging_Adjusted_Penalty> (1)
0

>  <i_epik_Tot_Q> (1)
0

>  <i_epik_Tot_abs_Q> (1)
0

>  <s_lp_Force_Field> (1)
S-OPLS

>  <r_lp_Energy> (1)
0.625491

>  <b_lp_Chiralities_Consistent> (1)
1

$$$$
