8346_Di-n-octyl phthalate
                    3D
 Schrodinger Suite 2021-3.
 66 66  0  0  1  0            999 V2000
   -0.5713   -2.5657   -7.9842 C   0  0  0  0  0  0
   -1.0579   -2.4649   -6.5361 C   0  0  0  0  0  0
   -0.0327   -2.9826   -5.5208 C   0  0  0  0  0  0
   -0.4957   -2.8364   -4.0673 C   0  0  0  0  0  0
    0.5865   -3.1821   -3.0366 C   0  0  0  0  0  0
    0.2019   -2.7751   -1.6112 C   0  0  0  0  0  0
    1.2837   -3.0936   -0.5720 C   0  0  0  0  0  0
    0.9977   -2.4721    0.7856 C   0  0  0  0  0  0
    1.1283   -1.0365    0.6332 O   0  0  0  0  0  0
    0.7143   -0.2960    1.6752 C   0  0  0  0  0  0
    0.3460   -0.7525    2.7373 O   0  0  0  0  0  0
    0.8899    1.1749    1.4252 C   0  0  0  0  0  0
    1.5832    1.8801    2.4120 C   0  0  0  0  0  0
    1.8727    3.2335    2.2503 C   0  0  0  0  0  0
    1.4602    3.8982    1.0961 C   0  0  0  0  0  0
    0.7444    3.2114    0.1183 C   0  0  0  0  0  0
    0.4435    1.8525    0.2742 C   0  0  0  0  0  0
   -0.4465    1.1709   -0.7137 C   0  0  0  0  0  0
   -1.1511    0.2154   -0.4565 O   0  0  0  0  0  0
   -0.3915    1.7709   -1.9240 O   0  0  0  0  0  0
   -1.1698    1.1929   -2.9995 C   0  0  0  0  0  0
   -0.3390    1.2665   -4.2733 C   0  0  0  0  0  0
    1.0263    0.5846   -4.1255 C   0  0  0  0  0  0
    1.7908    0.4484   -5.4452 C   0  0  0  0  0  0
    3.1333   -0.2701   -5.2708 C   0  0  0  0  0  0
    3.9129   -0.4541   -6.5765 C   0  0  0  0  0  0
    5.2530   -1.1733   -6.3799 C   0  0  0  0  0  0
    6.0362   -1.3558   -7.6831 C   0  0  0  0  0  0
   -1.3174   -2.1838   -8.6887 H   0  0  0  0  0  0
   -0.3552   -3.6051   -8.2569 H   0  0  0  0  0  0
    0.3504   -1.9891   -8.1284 H   0  0  0  0  0  0
   -1.2918   -1.4164   -6.3021 H   0  0  0  0  0  0
   -1.9998   -3.0177   -6.4198 H   0  0  0  0  0  0
    0.2000   -4.0354   -5.7341 H   0  0  0  0  0  0
    0.9094   -2.4326   -5.6547 H   0  0  0  0  0  0
   -0.8235   -1.8006   -3.9059 H   0  0  0  0  0  0
   -1.3846   -3.4581   -3.8934 H   0  0  0  0  0  0
    0.8108   -4.2573   -3.0800 H   0  0  0  0  0  0
    1.5209   -2.6699   -3.3093 H   0  0  0  0  0  0
   -0.0062   -1.7004   -1.5823 H   0  0  0  0  0  0
   -0.7364   -3.2679   -1.3208 H   0  0  0  0  0  0
    1.3808   -4.1793   -0.4414 H   0  0  0  0  0  0
    2.2598   -2.7316   -0.9205 H   0  0  0  0  0  0
   -0.0133   -2.6980    1.1392 H   0  0  0  0  0  0
    1.7045   -2.8052    1.5533 H   0  0  0  0  0  0
    1.8989    1.3480    3.3032 H   0  0  0  0  0  0
    2.4194    3.7656    3.0230 H   0  0  0  0  0  0
    1.6834    4.9523    0.9620 H   0  0  0  0  0  0
    0.3944    3.7269   -0.7683 H   0  0  0  0  0  0
   -1.4188    0.1618   -2.7378 H   0  0  0  0  0  0
   -2.1024    1.7616   -3.0821 H   0  0  0  0  0  0
   -0.9197    0.7840   -5.0713 H   0  0  0  0  0  0
   -0.2045    2.3137   -4.5719 H   0  0  0  0  0  0
    1.6285    1.1472   -3.4027 H   0  0  0  0  0  0
    0.8869   -0.4109   -3.6875 H   0  0  0  0  0  0
    1.1737   -0.1017   -6.1700 H   0  0  0  0  0  0
    1.9590    1.4430   -5.8821 H   0  0  0  0  0  0
    3.7508    0.2869   -4.5518 H   0  0  0  0  0  0
    2.9568   -1.2552   -4.8150 H   0  0  0  0  0  0
    3.2975   -1.0194   -7.2918 H   0  0  0  0  0  0
    4.0903    0.5275   -7.0391 H   0  0  0  0  0  0
    5.8620   -0.6091   -5.6604 H   0  0  0  0  0  0
    5.0710   -2.1538   -5.9189 H   0  0  0  0  0  0
    6.9866   -1.8721   -7.5125 H   0  0  0  0  0  0
    6.2607   -0.3881   -8.1466 H   0  0  0  0  0  0
    5.4625   -1.9436   -8.4089 H   0  0  0  0  0  0
  1  2  1  0  0  0
  1 29  1  0  0  0
  1 30  1  0  0  0
  1 31  1  0  0  0
  2  3  1  0  0  0
  2 32  1  0  0  0
  2 33  1  0  0  0
  3  4  1  0  0  0
  3 34  1  0  0  0
  3 35  1  0  0  0
  4  5  1  0  0  0
  4 36  1  0  0  0
  4 37  1  0  0  0
  5  6  1  0  0  0
  5 38  1  0  0  0
  5 39  1  0  0  0
  6  7  1  0  0  0
  6 40  1  0  0  0
  6 41  1  0  0  0
  7  8  1  0  0  0
  7 42  1  0  0  0
  7 43  1  0  0  0
  8  9  1  0  0  0
  8 44  1  0  0  0
  8 45  1  0  0  0
  9 10  1  0  0  0
 10 11  2  0  0  0
 10 12  1  0  0  0
 12 17  1  0  0  0
 12 13  2  0  0  0
 13 14  1  0  0  0
 13 46  1  0  0  0
 14 15  2  0  0  0
 14 47  1  0  0  0
 15 16  1  0  0  0
 15 48  1  0  0  0
 16 17  2  0  0  0
 16 49  1  0  0  0
 17 18  1  0  0  0
 18 19  2  0  0  0
 18 20  1  0  0  0
 20 21  1  0  0  0
 21 22  1  0  0  0
 21 50  1  0  0  0
 21 51  1  0  0  0
 22 23  1  0  0  0
 22 52  1  0  0  0
 22 53  1  0  0  0
 23 24  1  0  0  0
 23 54  1  0  0  0
 23 55  1  0  0  0
 24 25  1  0  0  0
 24 56  1  0  0  0
 24 57  1  0  0  0
 25 26  1  0  0  0
 25 58  1  0  0  0
 25 59  1  0  0  0
 26 27  1  0  0  0
 26 60  1  0  0  0
 26 61  1  0  0  0
 27 28  1  0  0  0
 27 62  1  0  0  0
 27 63  1  0  0  0
 28 64  1  0  0  0
 28 65  1  0  0  0
 28 66  1  0  0  0
M  END
>  <i_m_Spin_multiplicity> (1)
1

>  <s_j_Task> (1)
Single Point

>  <s_j_QM_Method> (1)
DFT(b3lyp-d3)

>  <s_j_QM_Basis> (1)
cc-pvtz(-f)

>  <i_j_Number_of_canonical_orbitals> (1)
975

>  <i_j_Geometry_convergence_category> (1)
4

>  <r_j_Gas_Phase_Energy> (1)
-1238.87676688949

>  <r_j_Final_Energy> (1)
-1238.87676688949

>  <r_j_HOMO> (1)
-0.261082517214294

>  <r_j_LUMO> (1)
-0.0582265874762792

>  <r_j_Polarizability> (1)
297.747810087594

>  <r_j_QM_Dipole_(debye)> (1)
3.56241502504693

>  <r_j_QM_Dipole_X_(debye)> (1)
1.60992416374153

>  <r_j_QM_Dipole_Y_(debye)> (1)
1.58614529213997

>  <r_j_QM_Dipole_Z_(debye)> (1)
-2.75374074849167

>  <r_j_Lowest_Frequency_(cm-1)> (1)
25.8008584462045

>  <r_j_Highest_Frequency_(cm-1)> (1)
3173.68410793072

>  <r_j_2nd_Lowest_Frequency_(cm-1)> (1)
29.9888438034403

>  <i_j_Num_Negative_Frequencies> (1)
0

>  <r_j_Zero_Point_Energy_(kcal/mol)> (1)
367.024109482483

>  <r_j_Entropy_(cal/mol/K)_298.15K_1.00E+00atm> (1)
181.934615101453

>  <r_j_Enthalpy_(kcal/mol)_298.15K_1.00E+00atm> (1)
18.9186235051016

>  <r_j_Free_Energy_(kcal/mol)_298.15K_1.00E+00atm> (1)
-35.3251819873968

>  <r_j_Internal_Energy_(kcal/mol)_298.15K_1.00E+00atm> (1)
18.3261379162743

>  <r_j_Heat_Capacity_(cal/mol/K)_298.15K_1.00E+00atm> (1)
113.425220485412

>  <r_j_ln(Q)_298.15K_1.00E+00atm> (1)
59.6220104818364

>  <r_j_Total_Internal_Energy_(au)_298.15K_1.00E+00atm> (1)
-1238.26267217727

>  <r_j_Total_Enthalpy_(au)_298.15K_1.00E+00atm> (1)
-1238.26172799137

>  <r_j_Total_Free_Energy_(au)_298.15K_1.00E+00atm> (1)
-1238.34817099835

>  <r_lp_tautomer_probability> (1)
1

>  <r_epik_Ionization_Penalty> (1)
  0.0000

>  <r_epik_Ionization_Penalty_Charging> (1)
  0.0000

>  <r_epik_Ionization_Penalty_Neutral> (1)
  0.0000

>  <r_epik_State_Penalty> (1)
  0.0000

>  <r_epik_Charging_Adjusted_Penalty> (1)
0

>  <i_epik_Tot_Q> (1)
0

>  <i_epik_Tot_abs_Q> (1)
0

>  <s_lp_Force_Field> (1)
S-OPLS

>  <r_lp_Energy> (1)
19.003679

>  <b_lp_Chiralities_Consistent> (1)
1

>  <s_epik_Chemistry_Notes> (1)
This compound has an ester and may undergo hydrolysis at high or low pH.

$$$$
