8362_Homosalate
                    3D
 Schrodinger Suite 2021-3.
 41 42  0  0  1  0            999 V2000
   -2.5600   -1.9701    2.4034 C   0  0  0  0  0  0
   -2.1177   -0.9959    1.3064 C   0  0  0  0  0  0
   -0.6039   -0.7294    1.3780 C   0  0  0  0  0  0
   -0.1587    0.2122    0.2665 C   0  0  0  0  0  0
   -0.5312   -0.3258   -1.1156 C   0  0  0  0  0  0
   -2.0451   -0.6099   -1.2609 C   0  0  0  0  0  0
   -2.4988   -1.5178   -0.0915 C   0  0  0  0  0  0
   -2.8444    0.7096   -1.2747 C   0  0  0  0  0  0
   -2.2894   -1.3383   -2.5936 C   0  0  0  0  0  0
    1.2826    0.3286    0.3724 O   0  0  0  0  0  0
    1.8455    1.4301   -0.1925 C   0  0  0  0  0  0
    1.1946    2.3105   -0.7175 O   0  0  0  0  0  0
    3.3310    1.3886   -0.0842 C   0  0  0  0  0  0
    3.9795    0.2201    0.3494 C   0  0  0  0  0  0
    5.3639    0.1366    0.4299 C   0  0  0  0  0  0
    6.1350    1.2452    0.0754 C   0  0  0  0  0  0
    5.5202    2.4161   -0.3514 C   0  0  0  0  0  0
    4.1231    2.5050   -0.4381 C   0  0  0  0  0  0
    3.5251    3.6517   -0.8472 O   0  0  0  0  0  0
   -2.0667   -2.9422    2.2823 H   0  0  0  0  0  0
   -3.6418   -2.1387    2.3709 H   0  0  0  0  0  0
   -2.3075   -1.5894    3.3990 H   0  0  0  0  0  0
   -2.6372   -0.0422    1.4760 H   0  0  0  0  0  0
   -0.3281   -0.3096    2.3521 H   0  0  0  0  0  0
   -0.0604   -1.6788    1.2717 H   0  0  0  0  0  0
   -0.5834    1.2098    0.4108 H   0  0  0  0  0  0
   -0.2031    0.3863   -1.8793 H   0  0  0  0  0  0
    0.0304   -1.2572   -1.2696 H   0  0  0  0  0  0
   -2.0398   -2.5094   -0.2212 H   0  0  0  0  0  0
   -3.5848   -1.6704   -0.1474 H   0  0  0  0  0  0
   -3.9136    0.5092   -1.4064 H   0  0  0  0  0  0
   -2.5166    1.3500   -2.1005 H   0  0  0  0  0  0
   -2.7288    1.2848   -0.3525 H   0  0  0  0  0  0
   -3.3540   -1.5612   -2.7286 H   0  0  0  0  0  0
   -1.7392   -2.2851   -2.6353 H   0  0  0  0  0  0
   -1.9654   -0.7234   -3.4407 H   0  0  0  0  0  0
    3.3665   -0.6314    0.6184 H   0  0  0  0  0  0
    5.8376   -0.7811    0.7626 H   0  0  0  0  0  0
    7.2189    1.2002    0.1299 H   0  0  0  0  0  0
    6.1204    3.2813   -0.6255 H   0  0  0  0  0  0
    4.2107    4.3078   -1.0317 H   0  0  0  0  0  0
  1  2  1  0  0  0
  1 20  1  0  0  0
  1 21  1  0  0  0
  1 22  1  0  0  0
  2  7  1  0  0  0
  2  3  1  0  0  0
  2 23  1  0  0  0
  3  4  1  0  0  0
  3 24  1  0  0  0
  3 25  1  0  0  0
  4  5  1  0  0  0
  4 10  1  0  0  0
  4 26  1  0  0  0
  5  6  1  0  0  0
  5 27  1  0  0  0
  5 28  1  0  0  0
  6  7  1  0  0  0
  6  8  1  0  0  0
  6  9  1  0  0  0
  7 29  1  0  0  0
  7 30  1  0  0  0
  8 31  1  0  0  0
  8 32  1  0  0  0
  8 33  1  0  0  0
  9 34  1  0  0  0
  9 35  1  0  0  0
  9 36  1  0  0  0
 10 11  1  0  0  0
 11 12  2  0  0  0
 11 13  1  0  0  0
 13 18  1  0  0  0
 13 14  2  0  0  0
 14 15  1  0  0  0
 14 37  1  0  0  0
 15 16  2  0  0  0
 15 38  1  0  0  0
 16 17  1  0  0  0
 16 39  1  0  0  0
 17 18  2  0  0  0
 17 40  1  0  0  0
 18 19  1  0  0  0
 19 41  1  0  0  0
M  END
>  <i_m_Spin_multiplicity> (1)
1

>  <s_j_Task> (1)
Single Point

>  <s_j_QM_Method> (1)
DFT(b3lyp-d3)

>  <s_j_QM_Basis> (1)
cc-pvtz(-f)

>  <i_j_Number_of_canonical_orbitals> (1)
627

>  <i_j_Geometry_convergence_category> (1)
0

>  <r_j_Gas_Phase_Energy> (1)
-848.979418319793

>  <r_j_Final_Energy> (1)
-848.979418319793

>  <r_j_HOMO> (1)
-0.229096177116401

>  <r_j_LUMO> (1)
-0.0425482694476276

>  <r_j_Polarizability> (1)
196.315094201663

>  <r_j_QM_Dipole_(debye)> (1)
1.96926250222507

>  <r_j_QM_Dipole_X_(debye)> (1)
1.81086602915927

>  <r_j_QM_Dipole_Y_(debye)> (1)
-0.613774478460118

>  <r_j_QM_Dipole_Z_(debye)> (1)
0.471211116908005

>  <r_j_Lowest_Frequency_(cm-1)> (1)
44.5538939895459

>  <r_j_Highest_Frequency_(cm-1)> (1)
3758.44312669384

>  <r_j_2nd_Lowest_Frequency_(cm-1)> (1)
52.9555064731623

>  <i_j_Num_Negative_Frequencies> (1)
0

>  <r_j_Zero_Point_Energy_(kcal/mol)> (1)
221.773006115597

>  <r_j_Entropy_(cal/mol/K)_298.15K_1.00E+00atm> (1)
128.850255752998

>  <r_j_Enthalpy_(kcal/mol)_298.15K_1.00E+00atm> (1)
11.467950735909

>  <r_j_Free_Energy_(kcal/mol)_298.15K_1.00E+00atm> (1)
-26.9487530168474

>  <r_j_Internal_Energy_(kcal/mol)_298.15K_1.00E+00atm> (1)
10.8754651470817

>  <r_j_Heat_Capacity_(cal/mol/K)_298.15K_1.00E+00atm> (1)
71.5349732775742

>  <r_j_ln(Q)_298.15K_1.00E+00atm> (1)
45.4842337518925

>  <r_j_Total_Internal_Energy_(au)_298.15K_1.00E+00atm> (1)
-848.608669379124

>  <r_j_Total_Enthalpy_(au)_298.15K_1.00E+00atm> (1)
-848.607725193231

>  <r_j_Total_Free_Energy_(au)_298.15K_1.00E+00atm> (1)
-848.668946107958

>  <r_epik_Ionization_Penalty> (1)
  0.0019

>  <r_epik_Ionization_Penalty_Charging> (1)
  0.0000

>  <r_epik_Ionization_Penalty_Neutral> (1)
  0.0019

>  <r_epik_State_Penalty> (1)
  0.0013

>  <r_epik_Charging_Adjusted_Penalty> (1)
0.00129703

>  <i_epik_Tot_Q> (1)
0

>  <i_epik_Tot_abs_Q> (1)
0

>  <s_lp_Force_Field> (1)
S-OPLS

>  <r_lp_Energy> (1)
22.0375

>  <b_lp_Chiralities_Consistent> (1)
1

>  <s_epik_Chemistry_Notes> (1)
This compound has an ester and may undergo hydrolysis at high or low pH.

$$$$
