83756_3-Aminopropyltrimethoxysilane
                    3D
 Schrodinger Suite 2021-3.
 29 28  0  0  1  0            999 V2000
   -1.1321    2.0983   -1.2645 C   0  0  0  0  0  0
   -0.8356    1.3975   -0.0544 O   0  0  0  0  0  0
   -0.0585   -0.0442    0.0450 Si  0  0  0  0  0  0
    1.8046    0.0667   -0.1676 C   0  0  0  0  0  0
    2.4547   -1.3156    0.0134 C   0  0  0  0  0  0
    3.9667   -1.2336   -0.1374 C   0  0  0  0  0  0
    4.5980   -2.6226    0.0438 N   0  3  1  0  0  0
   -0.2879   -0.6381    1.5581 O   0  0  0  0  0  0
   -1.4827   -0.5064    2.3375 C   0  0  0  0  0  0
   -0.5230   -1.0803   -1.1545 O   0  0  0  0  0  0
   -1.8571   -1.5779   -1.2988 C   0  0  0  0  0  0
   -0.2841    2.7260   -1.5618 H   0  0  0  0  0  0
   -1.9948    2.7424   -1.0807 H   0  0  0  0  0  0
   -1.3693    1.4104   -2.0844 H   0  0  0  0  0  0
    2.0319    0.4681   -1.1625 H   0  0  0  0  0  0
    2.1955    0.7764    0.5707 H   0  0  0  0  0  0
    2.2002   -1.7077    1.0068 H   0  0  0  0  0  0
    2.0414   -2.0096   -0.7298 H   0  0  0  0  0  0
    4.2708   -0.8930   -1.1299 H   0  0  0  0  0  0
    4.4285   -0.5932    0.6176 H   0  0  0  0  0  0
    5.6191   -2.6060   -0.0497 H   0  0  0  0  0  0
    4.2272   -3.2794   -0.6516 H   0  0  0  0  0  0
   -1.2221   -0.6735    3.3853 H   0  0  0  0  0  0
   -2.2247   -1.2553    2.0367 H   0  0  0  0  0  0
   -1.9164    0.4924    2.2300 H   0  0  0  0  0  0
   -1.9315   -2.0744   -2.2690 H   0  0  0  0  0  0
   -2.5962   -0.7687   -1.2632 H   0  0  0  0  0  0
   -2.0903   -2.3045   -0.5115 H   0  0  0  0  0  0
    4.3712   -3.0023    0.9695 H   0  0  0  0  0  0
  1  2  1  0  0  0
  1 12  1  0  0  0
  1 13  1  0  0  0
  1 14  1  0  0  0
  2  3  1  0  0  0
  3  4  1  0  0  0
  3  8  1  0  0  0
  3 10  1  0  0  0
  4  5  1  0  0  0
  4 15  1  0  0  0
  4 16  1  0  0  0
  5  6  1  0  0  0
  5 17  1  0  0  0
  5 18  1  0  0  0
  6  7  1  0  0  0
  6 19  1  0  0  0
  6 20  1  0  0  0
  7 21  1  0  0  0
  7 22  1  0  0  0
  7 29  1  0  0  0
  8  9  1  0  0  0
  9 23  1  0  0  0
  9 24  1  0  0  0
  9 25  1  0  0  0
 10 11  1  0  0  0
 11 26  1  0  0  0
 11 27  1  0  0  0
 11 28  1  0  0  0
M  END
>  <i_m_Spin_multiplicity> (1)
1

>  <s_j_Task> (1)
Single Point

>  <s_j_QM_Method> (1)
DFT(b3lyp-d3)

>  <s_j_QM_Basis> (1)
cc-pvtz(-f)

>  <i_j_Number_of_canonical_orbitals> (1)
418

>  <i_j_Geometry_convergence_category> (1)
3

>  <r_j_Gas_Phase_Energy> (1)
-809.523401067475

>  <r_j_Final_Energy> (1)
-809.523401067475

>  <r_j_HOMO> (1)
-0.378533209432331

>  <r_j_LUMO> (1)
-0.197180444583976

>  <r_j_Polarizability> (1)
110.836053188708

>  <r_j_QM_Dipole_(debye)> (1)
15.7611174766122

>  <r_j_QM_Dipole_X_(debye)> (1)
13.9307380302376

>  <r_j_QM_Dipole_Y_(debye)> (1)
-7.34681887111128

>  <r_j_QM_Dipole_Z_(debye)> (1)
-0.609601935319236

>  <r_j_Lowest_Frequency_(cm-1)> (1)
51.9343932064681

>  <r_j_Highest_Frequency_(cm-1)> (1)
3439.4949923186

>  <r_j_2nd_Lowest_Frequency_(cm-1)> (1)
67.9618063724664

>  <i_j_Num_Negative_Frequencies> (1)
0

>  <r_j_Zero_Point_Energy_(kcal/mol)> (1)
160.516949417023

>  <r_j_Entropy_(cal/mol/K)_298.15K_1.00E+00atm> (1)
122.561614026044

>  <r_j_Enthalpy_(kcal/mol)_298.15K_1.00E+00atm> (1)
10.3109231073681

>  <r_j_Free_Energy_(kcal/mol)_298.15K_1.00E+00atm> (1)
-26.2308221144971

>  <r_j_Internal_Energy_(kcal/mol)_298.15K_1.00E+00atm> (1)
9.71843751854078

>  <r_j_Heat_Capacity_(cal/mol/K)_298.15K_1.00E+00atm> (1)
54.0021223593633

>  <r_j_ln(Q)_298.15K_1.00E+00atm> (1)
44.2725065539848

>  <r_j_Total_Internal_Energy_(au)_298.15K_1.00E+00atm> (1)
-809.252113708361

>  <r_j_Total_Enthalpy_(au)_298.15K_1.00E+00atm> (1)
-809.251169522469

>  <r_j_Total_Free_Energy_(au)_298.15K_1.00E+00atm> (1)
-809.309402500565

>  <r_epik_Ionization_Penalty> (1)
  0.0006

>  <r_epik_Ionization_Penalty_Charging> (1)
  0.0006

>  <r_epik_Ionization_Penalty_Neutral> (1)
  0.0000

>  <r_epik_State_Penalty> (1)
  0.0004

>  <r_epik_Charging_Adjusted_Penalty> (1)
0.000973531236766171

>  <i_epik_Tot_Q> (1)
1

>  <i_epik_Tot_abs_Q> (1)
1

>  <s_lp_Force_Field> (1)
S-OPLS

>  <r_lp_Energy> (1)
2.374804

>  <b_lp_Chiralities_Consistent> (1)
1

$$$$
