8413_3,3-Dimethylbenzidine
                    3D
 Schrodinger Suite 2021-3.
 32 33  0  0  1  0            999 V2000
   -2.8733    2.5166    0.1333 C   0  0  0  0  0  0
   -2.1201    1.2130    0.0409 C   0  0  0  0  0  0
   -2.8297   -0.0065   -0.0301 C   0  0  0  0  0  0
   -2.1093   -1.2075   -0.0885 C   0  0  0  0  0  0
   -0.7194   -1.2104   -0.0798 C   0  0  0  0  0  0
    0.0092   -0.0134   -0.0124 C   0  0  0  0  0  0
   -0.7266    1.1816    0.0469 C   0  0  0  0  0  0
    1.4907   -0.0103    0.0002 C   0  0  0  0  0  0
    2.2280    0.9950   -0.6468 C   0  0  0  0  0  0
    3.6217    1.0283   -0.6492 C   0  0  0  0  0  0
    4.3291    0.0107    0.0290 C   0  0  0  0  0  0
    3.6072   -1.0026    0.6744 C   0  0  0  0  0  0
    2.2175   -1.0124    0.6602 C   0  0  0  0  0  0
    5.7306   -0.0195   -0.0004 N   0  0  0  0  0  0
    4.3775    2.1113   -1.3784 C   0  0  0  0  0  0
   -4.2308   -0.0157    0.0240 N   0  0  0  0  0  0
   -3.5713    2.5142    0.9796 H   0  0  0  0  0  0
   -3.4669    2.7129   -0.7715 H   0  0  0  0  0  0
   -2.1900    3.3598    0.2588 H   0  0  0  0  0  0
   -2.6502   -2.1492   -0.1526 H   0  0  0  0  0  0
   -0.1918   -2.1565   -0.1577 H   0  0  0  0  0  0
   -0.1918    2.1242    0.1322 H   0  0  0  0  0  0
    1.6947    1.7673   -1.1954 H   0  0  0  0  0  0
    4.1468   -1.7854    1.2033 H   0  0  0  0  0  0
    1.6884   -1.7938    1.1978 H   0  0  0  0  0  0
    6.1438   -0.6119    0.7077 H   0  0  0  0  0  0
    6.1779    0.8874   -0.0190 H   0  0  0  0  0  0
    5.0874    1.6853   -2.0982 H   0  0  0  0  0  0
    4.9590    2.7413   -0.6895 H   0  0  0  0  0  0
    3.6977    2.7717   -1.9223 H   0  0  0  0  0  0
   -4.6486   -0.8822   -0.2886 H   0  0  0  0  0  0
   -4.6809    0.7796   -0.4095 H   0  0  0  0  0  0
  1  2  1  0  0  0
  1 17  1  0  0  0
  1 18  1  0  0  0
  1 19  1  0  0  0
  2  7  1  0  0  0
  2  3  2  0  0  0
  3  4  1  0  0  0
  3 16  1  0  0  0
  4  5  2  0  0  0
  4 20  1  0  0  0
  5  6  1  0  0  0
  5 21  1  0  0  0
  6  7  2  0  0  0
  6  8  1  0  0  0
  7 22  1  0  0  0
  8 13  1  0  0  0
  8  9  2  0  0  0
  9 10  1  0  0  0
  9 23  1  0  0  0
 10 11  2  0  0  0
 10 15  1  0  0  0
 11 12  1  0  0  0
 11 14  1  0  0  0
 12 13  2  0  0  0
 12 24  1  0  0  0
 13 25  1  0  0  0
 14 26  1  0  0  0
 14 27  1  0  0  0
 15 28  1  0  0  0
 15 29  1  0  0  0
 15 30  1  0  0  0
 16 31  1  0  0  0
 16 32  1  0  0  0
M  END
>  <i_m_Spin_multiplicity> (1)
1

>  <s_j_Task> (1)
Single Point

>  <s_j_QM_Method> (1)
DFT(b3lyp-d3)

>  <s_j_QM_Basis> (1)
cc-pvtz(-f)

>  <i_j_Number_of_canonical_orbitals> (1)
499

>  <i_j_Geometry_convergence_category> (1)
3

>  <r_j_Gas_Phase_Energy> (1)
-652.888756869187

>  <r_j_Final_Energy> (1)
-652.888756869187

>  <r_j_HOMO> (1)
-0.181414538756829

>  <r_j_LUMO> (1)
-0.00991855809465198

>  <r_j_Polarizability> (1)
192.418963959264

>  <r_j_QM_Dipole_(debye)> (1)
0.764858815971347

>  <r_j_QM_Dipole_X_(debye)> (1)
-0.00850675857326419

>  <r_j_QM_Dipole_Y_(debye)> (1)
0.742655988933556

>  <r_j_QM_Dipole_Z_(debye)> (1)
-0.182753181993608

>  <r_j_Lowest_Frequency_(cm-1)> (1)
72.8072573282004

>  <r_j_Highest_Frequency_(cm-1)> (1)
3599.974074732

>  <r_j_2nd_Lowest_Frequency_(cm-1)> (1)
73.218308721744

>  <i_j_Num_Negative_Frequencies> (1)
0

>  <r_j_Zero_Point_Energy_(kcal/mol)> (1)
169.206783886402

>  <r_j_Entropy_(cal/mol/K)_298.15K_1.00E+00atm> (1)
114.555398169

>  <r_j_Enthalpy_(kcal/mol)_298.15K_1.00E+00atm> (1)
9.47090129583803

>  <r_j_Free_Energy_(kcal/mol)_298.15K_1.00E+00atm> (1)
-24.6837906682493

>  <r_j_Internal_Energy_(kcal/mol)_298.15K_1.00E+00atm> (1)
8.87841570701076

>  <r_j_Heat_Capacity_(cal/mol/K)_298.15K_1.00E+00atm> (1)
58.7076155209469

>  <r_j_ln(Q)_298.15K_1.00E+00atm> (1)
41.661419507446

>  <r_j_Total_Internal_Energy_(au)_298.15K_1.00E+00atm> (1)
-652.604960037255

>  <r_j_Total_Enthalpy_(au)_298.15K_1.00E+00atm> (1)
-652.604015851362

>  <r_j_Total_Free_Energy_(au)_298.15K_1.00E+00atm> (1)
-652.658444817931

>  <r_lp_tautomer_probability> (1)
1

>  <r_epik_Ionization_Penalty> (1)
  0.0021

>  <r_epik_Ionization_Penalty_Charging> (1)
  0.0000

>  <r_epik_Ionization_Penalty_Neutral> (1)
  0.0021

>  <r_epik_State_Penalty> (1)
  0.0000

>  <r_epik_Charging_Adjusted_Penalty> (1)
0

>  <i_epik_Tot_Q> (1)
0

>  <i_epik_Tot_abs_Q> (1)
0

>  <s_lp_Force_Field> (1)
S-OPLS

>  <r_lp_Energy> (1)
17.461

>  <b_lp_Chiralities_Consistent> (1)
1

$$$$
