8417_6,7-Dimethoxy-coumarin
                    3D
 Schrodinger Suite 2021-3.
 25 26  0  0  1  0            999 V2000
   -0.6867    1.1301    0.0000 C   0  0  0  0  0  0
    0.0844   -0.0609    0.0000 O   0  0  0  0  0  0
    1.4398    0.0627    0.0000 C   0  0  0  0  0  0
    2.1610   -1.1707    0.0000 C   0  0  0  0  0  0
    3.5512   -1.1646    0.0000 C   0  0  0  0  0  0
    4.2352    0.0536    0.0000 C   0  0  0  0  0  0
    3.5511    1.2752    0.0000 C   0  0  0  0  0  0
    2.1378    1.2569    0.0000 C   0  0  0  0  0  0
    4.3422    2.4738    0.0000 C   0  0  0  0  0  0
    5.6955    2.4120    0.0000 C   0  0  0  0  0  0
    6.4028    1.1387    0.0000 C   0  0  0  0  0  0
    7.6019    0.9833    0.0000 O   0  0  0  0  0  0
    5.5986   -0.0066    0.0000 O   0  0  0  0  0  0
    1.3960   -2.2863    0.0000 O   0  0  0  0  0  0
    2.0526   -3.5482    0.0000 C   0  0  0  0  0  0
   -1.7300    0.8122    0.0000 H   0  0  0  0  0  0
   -0.4936    1.7381   -0.8943 H   0  0  0  0  0  0
   -0.4936    1.7381    0.8942 H   0  0  0  0  0  0
    4.1312   -2.0773    0.0000 H   0  0  0  0  0  0
    1.6109    2.2036    0.0000 H   0  0  0  0  0  0
    3.8354    3.4360   -0.0001 H   0  0  0  0  0  0
    6.3230    3.2946   -0.0001 H   0  0  0  0  0  0
    1.2593   -4.2962   -0.0001 H   0  0  0  0  0  0
    2.6753   -3.6768    0.8944 H   0  0  0  0  0  0
    2.6753   -3.6767   -0.8945 H   0  0  0  0  0  0
  1  2  1  0  0  0
  1 16  1  0  0  0
  1 17  1  0  0  0
  1 18  1  0  0  0
  2  3  1  0  0  0
  3  8  1  0  0  0
  3  4  2  0  0  0
  4  5  1  0  0  0
  4 14  1  0  0  0
  5  6  2  0  0  0
  5 19  1  0  0  0
  6 13  1  0  0  0
  6  7  1  0  0  0
  7  8  2  0  0  0
  7  9  1  0  0  0
  8 20  1  0  0  0
  9 10  2  0  0  0
  9 21  1  0  0  0
 10 11  1  0  0  0
 10 22  1  0  0  0
 11 12  2  0  0  0
 11 13  1  0  0  0
 14 15  1  0  0  0
 15 23  1  0  0  0
 15 24  1  0  0  0
 15 25  1  0  0  0
M  END
>  <i_m_Spin_multiplicity> (1)
1

>  <s_j_Task> (1)
Single Point

>  <s_j_QM_Method> (1)
DFT(b3lyp-d3)

>  <s_j_QM_Basis> (1)
cc-pvtz(-f)

>  <i_j_Number_of_canonical_orbitals> (1)
427

>  <i_j_Geometry_convergence_category> (1)
0

>  <r_j_Gas_Phase_Energy> (1)
-726.32366968237

>  <r_j_Final_Energy> (1)
-726.32366968237

>  <r_j_HOMO> (1)
-0.213887808168529

>  <r_j_LUMO> (1)
-0.063185659959927

>  <r_j_Polarizability> (1)
151.612238500559

>  <r_j_QM_Dipole_(debye)> (1)
5.46150480336894

>  <r_j_QM_Dipole_X_(debye)> (1)
-5.44817856446034

>  <r_j_QM_Dipole_Y_(debye)> (1)
0.381293902132086

>  <r_j_QM_Dipole_Z_(debye)> (1)
-8.46978471202816e-05

>  <r_j_Lowest_Frequency_(cm-1)> (1)
81.3562696091855

>  <r_j_Highest_Frequency_(cm-1)> (1)
3188.88701078428

>  <r_j_2nd_Lowest_Frequency_(cm-1)> (1)
93.9383097455708

>  <i_j_Num_Negative_Frequencies> (1)
0

>  <r_j_Zero_Point_Energy_(kcal/mol)> (1)
120.256802529941

>  <r_j_Entropy_(cal/mol/K)_298.15K_1.00E+00atm> (1)
108.816607963354

>  <r_j_Enthalpy_(kcal/mol)_298.15K_1.00E+00atm> (1)
8.40427930152675

>  <r_j_Free_Energy_(kcal/mol)_298.15K_1.00E+00atm> (1)
-24.0393923627472

>  <r_j_Internal_Energy_(kcal/mol)_298.15K_1.00E+00atm> (1)
7.81179371269948

>  <r_j_Heat_Capacity_(cal/mol/K)_298.15K_1.00E+00atm> (1)
48.9305486808209

>  <r_j_ln(Q)_298.15K_1.00E+00atm> (1)
40.5738009768796

>  <r_j_Total_Internal_Energy_(au)_298.15K_1.00E+00atm> (1)
-726.119579381959

>  <r_j_Total_Enthalpy_(au)_298.15K_1.00E+00atm> (1)
-726.118635196067

>  <r_j_Total_Free_Energy_(au)_298.15K_1.00E+00atm> (1)
-726.170337478208

>  <r_lp_tautomer_probability> (1)
1

>  <r_epik_Ionization_Penalty> (1)
  0.0000

>  <r_epik_Ionization_Penalty_Charging> (1)
  0.0000

>  <r_epik_Ionization_Penalty_Neutral> (1)
  0.0000

>  <r_epik_State_Penalty> (1)
  0.0000

>  <r_epik_Charging_Adjusted_Penalty> (1)
0

>  <i_epik_Tot_Q> (1)
0

>  <i_epik_Tot_abs_Q> (1)
0

>  <s_lp_Force_Field> (1)
S-OPLS

>  <r_lp_Energy> (1)
29.6194

>  <b_lp_Chiralities_Consistent> (1)
1

$$$$
