8418_Anthracene
                    3D
 Schrodinger Suite 2021-3.
 24 26  0  0  1  0            999 V2000
   -8.7710   -2.0200    3.9262 C   0  0  0  0  0  0
   -8.3099   -2.3056    5.2445 C   0  0  0  0  0  0
   -8.0415   -1.2884    6.1205 C   0  0  0  0  0  0
   -8.2160    0.0775    5.7369 C   0  0  0  0  0  0
   -7.9494    1.1376    6.6115 C   0  0  0  0  0  0
   -8.1235    2.4721    6.2264 C   0  0  0  0  0  0
   -7.8547    3.5626    7.1101 C   0  0  0  0  0  0
   -8.0344    4.8577    6.7047 C   0  0  0  0  0  0
   -8.4954    5.1445    5.3865 C   0  0  0  0  0  0
   -8.7643    4.1286    4.5091 C   0  0  0  0  0  0
   -8.5905    2.7623    4.8908 C   0  0  0  0  0  0
   -8.8571    1.7017    4.0162 C   0  0  0  0  0  0
   -8.6830    0.3669    4.4015 C   0  0  0  0  0  0
   -8.9512   -0.7252    3.5193 C   0  0  0  0  0  0
   -8.9790   -2.8395    3.2445 H   0  0  0  0  0  0
   -8.1726   -3.3388    5.5501 H   0  0  0  0  0  0
   -7.6899   -1.5040    7.1263 H   0  0  0  0  0  0
   -7.5975    0.9181    7.6173 H   0  0  0  0  0  0
   -7.5032    3.3417    8.1148 H   0  0  0  0  0  0
   -7.8260    5.6764    7.3873 H   0  0  0  0  0  0
   -8.6323    6.1780    5.0822 H   0  0  0  0  0  0
   -9.1159    4.3456    3.5037 H   0  0  0  0  0  0
   -9.2089    1.9206    3.0105 H   0  0  0  0  0  0
   -9.3027   -0.5062    2.5143 H   0  0  0  0  0  0
  1 14  1  0  0  0
  1  2  2  0  0  0
  1 15  1  0  0  0
  2  3  1  0  0  0
  2 16  1  0  0  0
  3  4  2  0  0  0
  3 17  1  0  0  0
  4 13  1  0  0  0
  4  5  1  0  0  0
  5  6  2  0  0  0
  5 18  1  0  0  0
  6 11  1  0  0  0
  6  7  1  0  0  0
  7  8  2  0  0  0
  7 19  1  0  0  0
  8  9  1  0  0  0
  8 20  1  0  0  0
  9 10  2  0  0  0
  9 21  1  0  0  0
 10 11  1  0  0  0
 10 22  1  0  0  0
 11 12  2  0  0  0
 12 13  1  0  0  0
 12 23  1  0  0  0
 13 14  2  0  0  0
 14 24  1  0  0  0
M  END
>  <i_m_Spin_multiplicity> (1)
1

>  <s_j_Task> (1)
Single Point

>  <s_j_QM_Method> (1)
DFT(b3lyp-d3)

>  <s_j_QM_Basis> (1)
cc-pvtz(-f)

>  <i_j_Number_of_canonical_orbitals> (1)
399

>  <i_j_Geometry_convergence_category> (1)
0

>  <r_j_Gas_Phase_Energy> (1)
-539.706817421946

>  <r_j_Final_Energy> (1)
-539.706817421946

>  <r_j_HOMO> (1)
-0.224089633328332

>  <r_j_LUMO> (1)
-0.0942609008372541

>  <r_j_Polarizability> (1)
171.664203291794

>  <r_j_QM_Dipole_(debye)> (1)
0.00206757768444957

>  <r_j_QM_Dipole_X_(debye)> (1)
0.000697563472570405

>  <r_j_QM_Dipole_Y_(debye)> (1)
2.19473025611735e-05

>  <r_j_QM_Dipole_Z_(debye)> (1)
0.00194622737594549

>  <r_j_Lowest_Frequency_(cm-1)> (1)
108.82906014448

>  <r_j_Highest_Frequency_(cm-1)> (1)
3147.28895184071

>  <r_j_2nd_Lowest_Frequency_(cm-1)> (1)
138.382344794529

>  <i_j_Num_Negative_Frequencies> (1)
0

>  <r_j_Zero_Point_Energy_(kcal/mol)> (1)
121.189079823321

>  <r_j_Entropy_(cal/mol/K)_298.15K_1.00E+00atm> (1)
93.923831478778

>  <r_j_Enthalpy_(kcal/mol)_298.15K_1.00E+00atm> (1)
6.38765694530765

>  <r_j_Free_Energy_(kcal/mol)_298.15K_1.00E+00atm> (1)
-21.61573341009

>  <r_j_Internal_Energy_(kcal/mol)_298.15K_1.00E+00atm> (1)
5.79517135648038

>  <r_j_Heat_Capacity_(cal/mol/K)_298.15K_1.00E+00atm> (1)
40.1687652295757

>  <r_j_ln(Q)_298.15K_1.00E+00atm> (1)
36.4831378479175

>  <r_j_Total_Internal_Energy_(au)_298.15K_1.00E+00atm> (1)
-539.504455135398

>  <r_j_Total_Enthalpy_(au)_298.15K_1.00E+00atm> (1)
-539.503510949506

>  <r_j_Total_Free_Energy_(au)_298.15K_1.00E+00atm> (1)
-539.548137192924

>  <r_lp_tautomer_probability> (1)
1

>  <r_epik_Ionization_Penalty> (1)
  0.0000

>  <r_epik_Ionization_Penalty_Charging> (1)
  0.0000

>  <r_epik_Ionization_Penalty_Neutral> (1)
  0.0000

>  <r_epik_State_Penalty> (1)
  0.0000

>  <r_epik_Charging_Adjusted_Penalty> (1)
0

>  <i_epik_Tot_Q> (1)
0

>  <i_epik_Tot_abs_Q> (1)
0

>  <s_lp_Force_Field> (1)
S-OPLS

>  <r_lp_Energy> (1)
27.0991

>  <b_lp_Chiralities_Consistent> (1)
1

$$$$
