8419_3,4-dimethoxybenzaldehyde
                    3D
 Schrodinger Suite 2021-3.
 22 22  0  0  1  0            999 V2000
   -0.6553    1.1536    0.0000 C   0  0  0  0  0  0
    0.1139   -0.0414    0.0000 O   0  0  0  0  0  0
    1.4641    0.0632    0.0000 C   0  0  0  0  0  0
    2.1691   -1.1763    0.0000 C   0  0  0  0  0  0
    3.5539   -1.1693    0.0000 C   0  0  0  0  0  0
    4.2624    0.0489    0.0000 C   0  0  0  0  0  0
    3.5696    1.2568    0.0000 C   0  0  0  0  0  0
    2.1733    1.2655    0.0000 C   0  0  0  0  0  0
    5.7349    0.0352    0.0000 C   0  0  0  0  0  0
    6.4215   -0.9724    0.0000 O   0  0  0  0  0  0
    1.3855   -2.2868    0.0000 O   0  0  0  0  0  0
    2.0343   -3.5511    0.0000 C   0  0  0  0  0  0
   -1.6986    0.8361    0.0000 H   0  0  0  0  0  0
   -0.4600    1.7590   -0.8945 H   0  0  0  0  0  0
   -0.4600    1.7590    0.8945 H   0  0  0  0  0  0
    4.1316   -2.0855    0.0000 H   0  0  0  0  0  0
    4.1163    2.1962    0.0000 H   0  0  0  0  0  0
    1.6430    2.2095    0.0000 H   0  0  0  0  0  0
    6.2059    1.0444    0.0000 H   0  0  0  0  0  0
    1.2371   -4.2956    0.0000 H   0  0  0  0  0  0
    2.6577   -3.6854    0.8935 H   0  0  0  0  0  0
    2.6578   -3.6854   -0.8935 H   0  0  0  0  0  0
  1  2  1  0  0  0
  1 13  1  0  0  0
  1 14  1  0  0  0
  1 15  1  0  0  0
  2  3  1  0  0  0
  3  8  1  0  0  0
  3  4  2  0  0  0
  4  5  1  0  0  0
  4 11  1  0  0  0
  5  6  2  0  0  0
  5 16  1  0  0  0
  6  7  1  0  0  0
  6  9  1  0  0  0
  7  8  2  0  0  0
  7 17  1  0  0  0
  8 18  1  0  0  0
  9 10  2  0  0  0
  9 19  1  0  0  0
 11 12  1  0  0  0
 12 20  1  0  0  0
 12 21  1  0  0  0
 12 22  1  0  0  0
M  END
>  <i_m_Spin_multiplicity> (1)
1

>  <s_j_Task> (1)
Single Point

>  <s_j_QM_Method> (1)
DFT(b3lyp-d3)

>  <s_j_QM_Basis> (1)
cc-pvtz(-f)

>  <i_j_Number_of_canonical_orbitals> (1)
360

>  <i_j_Geometry_convergence_category> (1)
0

>  <r_j_Gas_Phase_Energy> (1)
-574.826717829967

>  <r_j_Final_Energy> (1)
-574.826717829967

>  <r_j_HOMO> (1)
-0.228195678072904

>  <r_j_LUMO> (1)
-0.0617601005500698

>  <r_j_Polarizability> (1)
121.756247359008

>  <r_j_QM_Dipole_(debye)> (1)
4.013128690939

>  <r_j_QM_Dipole_X_(debye)> (1)
-3.58988527833561

>  <r_j_QM_Dipole_Y_(debye)> (1)
1.79385773592523

>  <r_j_QM_Dipole_Z_(debye)> (1)
4.10882470301758e-05

>  <r_j_Lowest_Frequency_(cm-1)> (1)
86.4750340681855

>  <r_j_Highest_Frequency_(cm-1)> (1)
3174.32682376792

>  <r_j_2nd_Lowest_Frequency_(cm-1)> (1)
110.366772813296

>  <i_j_Num_Negative_Frequencies> (1)
0

>  <r_j_Zero_Point_Energy_(kcal/mol)> (1)
109.458421439283

>  <r_j_Entropy_(cal/mol/K)_298.15K_1.00E+00atm> (1)
101.446680076889

>  <r_j_Enthalpy_(kcal/mol)_298.15K_1.00E+00atm> (1)
7.44580448941287

>  <r_j_Free_Energy_(kcal/mol)_298.15K_1.00E+00atm> (1)
-22.8005231755115

>  <r_j_Internal_Energy_(kcal/mol)_298.15K_1.00E+00atm> (1)
6.8533189005856

>  <r_j_Heat_Capacity_(cal/mol/K)_298.15K_1.00E+00atm> (1)
41.5172876680058

>  <r_j_ln(Q)_298.15K_1.00E+00atm> (1)
38.4828316594861

>  <r_j_Total_Internal_Energy_(au)_298.15K_1.00E+00atm> (1)
-574.641363272147

>  <r_j_Total_Enthalpy_(au)_298.15K_1.00E+00atm> (1)
-574.640419086254

>  <r_j_Total_Free_Energy_(au)_298.15K_1.00E+00atm> (1)
-574.688619677817

>  <r_lp_tautomer_probability> (1)
1

>  <r_epik_Ionization_Penalty> (1)
  0.0000

>  <r_epik_Ionization_Penalty_Charging> (1)
  0.0000

>  <r_epik_Ionization_Penalty_Neutral> (1)
  0.0000

>  <r_epik_State_Penalty> (1)
  0.0000

>  <r_epik_Charging_Adjusted_Penalty> (1)
0

>  <i_epik_Tot_Q> (1)
0

>  <i_epik_Tot_abs_Q> (1)
0

>  <s_lp_Force_Field> (1)
S-OPLS

>  <r_lp_Energy> (1)
15.656578

>  <b_lp_Chiralities_Consistent> (1)
1

$$$$
