8468_Vanillic acid
                    3D
 Schrodinger Suite 2021-3.
 19 19  0  0  1  0            999 V2000
   -0.6612    1.2078    0.0000 C   0  0  0  0  0  0
    0.0356   -0.0201    0.0000 O   0  0  0  0  0  0
    1.4161    0.0515    0.0000 C   0  0  0  0  0  0
    2.0885   -1.1853    0.0000 C   0  0  0  0  0  0
    3.4823   -1.2045    0.0000 C   0  0  0  0  0  0
    4.2139   -0.0138    0.0000 C   0  0  0  0  0  0
    3.5589    1.2159    0.0000 C   0  0  0  0  0  0
    2.1576    1.2314    0.0000 C   0  0  0  0  0  0
    4.3522    2.5540    0.0000 C   0  0  0  0  0  0
    3.6426    3.5921    0.0001 O   0  0  0  0  0  0
    5.6023    2.4308   -0.0001 O   0  5  0  0  0  0
    1.3265   -2.3403    0.0000 O   0  0  0  0  0  0
   -1.7256    0.9555    0.0000 H   0  0  0  0  0  0
   -0.4339    1.8132   -0.8892 H   0  0  0  0  0  0
   -0.4339    1.8132    0.8891 H   0  0  0  0  0  0
    3.9906   -2.1710    0.0000 H   0  0  0  0  0  0
    5.2994   -0.0022    0.0000 H   0  0  0  0  0  0
    1.6988    2.2144    0.0000 H   0  0  0  0  0  0
    1.9462   -3.0807    0.0000 H   0  0  0  0  0  0
  1  2  1  0  0  0
  1 13  1  0  0  0
  1 14  1  0  0  0
  1 15  1  0  0  0
  2  3  1  0  0  0
  3  8  1  0  0  0
  3  4  2  0  0  0
  4  5  1  0  0  0
  4 12  1  0  0  0
  5  6  2  0  0  0
  5 16  1  0  0  0
  6  7  1  0  0  0
  6 17  1  0  0  0
  7  8  2  0  0  0
  7  9  1  0  0  0
  8 18  1  0  0  0
  9 10  2  0  0  0
  9 11  1  0  0  0
 12 19  1  0  0  0
M  END
>  <i_m_Spin_multiplicity> (1)
1

>  <s_j_Task> (1)
Single Point

>  <s_j_QM_Method> (1)
DFT(b3lyp-d3)

>  <s_j_QM_Basis> (1)
cc-pvtz(-f)

>  <i_j_Number_of_canonical_orbitals> (1)
333

>  <i_j_Geometry_convergence_category> (1)
0

>  <r_j_Gas_Phase_Energy> (1)
-610.229948733806

>  <r_j_Final_Energy> (1)
-610.229948733806

>  <r_j_HOMO> (1)
-0.0380547890942456

>  <r_j_LUMO> (1)
0.112554277659036

>  <r_j_Polarizability> (1)
109.077757162778

>  <r_j_QM_Dipole_(debye)> (1)
10.9352847608316

>  <r_j_QM_Dipole_X_(debye)> (1)
-7.08203011664521

>  <r_j_QM_Dipole_Y_(debye)> (1)
-8.3321847209152

>  <r_j_QM_Dipole_Z_(debye)> (1)
6.28838305464029e-05

>  <r_j_Lowest_Frequency_(cm-1)> (1)
89.6514676322212

>  <r_j_Highest_Frequency_(cm-1)> (1)
3770.35927519054

>  <r_j_2nd_Lowest_Frequency_(cm-1)> (1)
107.263501475592

>  <i_j_Num_Negative_Frequencies> (1)
0

>  <r_j_Zero_Point_Energy_(kcal/mol)> (1)
86.6207156057269

>  <r_j_Entropy_(cal/mol/K)_298.15K_1.00E+00atm> (1)
99.606915284709

>  <r_j_Enthalpy_(kcal/mol)_298.15K_1.00E+00atm> (1)
7.11253390906919

>  <r_j_Free_Energy_(kcal/mol)_298.15K_1.00E+00atm> (1)
-22.5852678830668

>  <r_j_Internal_Energy_(kcal/mol)_298.15K_1.00E+00atm> (1)
6.52004832024191

>  <r_j_Heat_Capacity_(cal/mol/K)_298.15K_1.00E+00atm> (1)
39.4494902659372

>  <r_j_ln(Q)_298.15K_1.00E+00atm> (1)
38.1195227512124

>  <r_j_Total_Internal_Energy_(au)_298.15K_1.00E+00atm> (1)
-610.08151947755

>  <r_j_Total_Enthalpy_(au)_298.15K_1.00E+00atm> (1)
-610.080575291658

>  <r_j_Total_Free_Energy_(au)_298.15K_1.00E+00atm> (1)
-610.127901751595

>  <r_lp_tautomer_probability> (1)
1

>  <r_epik_Ionization_Penalty> (1)
  0.0026

>  <r_epik_Ionization_Penalty_Charging> (1)
  0.0017

>  <r_epik_Ionization_Penalty_Neutral> (1)
  0.0009

>  <r_epik_State_Penalty> (1)
  0.0000

>  <r_epik_Charging_Adjusted_Penalty> (1)
0.00168678435884883

>  <i_epik_Tot_Q> (1)
-1

>  <i_epik_Tot_abs_Q> (1)
1

>  <s_lp_Force_Field> (1)
S-OPLS

>  <r_lp_Energy> (1)
23.854185

>  <b_lp_Chiralities_Consistent> (1)
1

$$$$
