85014_1-Heneicosanol
                    3D
 Schrodinger Suite 2021-3.
 66 65  0  0  1  0            999 V2000
   -7.3464    0.3367   -7.5436 C   0  0  0  0  0  0
   -7.7507   -0.0113   -6.1079 C   0  0  0  0  0  0
   -6.8693    0.6683   -5.0527 C   0  0  0  0  0  0
   -7.2714    0.3125   -3.6153 C   0  0  0  0  0  0
   -6.4681    1.0386   -2.5253 C   0  0  0  0  0  0
   -4.9730    0.6929   -2.4971 C   0  0  0  0  0  0
   -4.2332    1.3214   -1.3102 C   0  0  0  0  0  0
   -2.7350    0.9962   -1.2824 C   0  0  0  0  0  0
   -2.0164    1.5741   -0.0555 C   0  0  0  0  0  0
   -0.4949    1.3592   -0.0444 C   0  0  0  0  0  0
   -0.0620   -0.1128   -0.0124 C   0  0  0  0  0  0
    1.4563   -0.2885    0.1261 C   0  0  0  0  0  0
    1.9248   -1.7520    0.1631 C   0  0  0  0  0  0
    1.7194   -2.5141   -1.1529 C   0  0  0  0  0  0
    2.2435   -3.9541   -1.1106 C   0  0  0  0  0  0
    2.0559   -4.7032   -2.4349 C   0  0  0  0  0  0
    2.5526   -6.1527   -2.3956 C   0  0  0  0  0  0
    2.3848   -6.8864   -3.7311 C   0  0  0  0  0  0
    2.8549   -8.3445   -3.6898 C   0  0  0  0  0  0
    2.7209   -9.0656   -5.0359 C   0  0  0  0  0  0
    3.1287  -10.5401   -4.9806 C   0  0  0  0  0  0
    4.4980  -10.7308   -4.6344 O   0  0  0  0  0  0
   -7.9915   -0.1601   -8.2758 H   0  0  0  0  0  0
   -6.3136    0.0312   -7.7474 H   0  0  0  0  0  0
   -7.4111    1.4165   -7.7205 H   0  0  0  0  0  0
   -8.7987    0.2731   -5.9412 H   0  0  0  0  0  0
   -7.7068   -1.1001   -5.9671 H   0  0  0  0  0  0
   -5.8222    0.3891   -5.2298 H   0  0  0  0  0  0
   -6.9192    1.7592   -5.1846 H   0  0  0  0  0  0
   -8.3376    0.5406   -3.4812 H   0  0  0  0  0  0
   -7.1743   -0.7735   -3.4725 H   0  0  0  0  0  0
   -6.5858    2.1248   -2.6489 H   0  0  0  0  0  0
   -6.9039    0.7970   -1.5462 H   0  0  0  0  0  0
   -4.8551   -0.4000   -2.4598 H   0  0  0  0  0  0
   -4.4951    1.0177   -3.4306 H   0  0  0  0  0  0
   -4.3689    2.4123   -1.3313 H   0  0  0  0  0  0
   -4.6958    0.9783   -0.3735 H   0  0  0  0  0  0
   -2.6076   -0.0939   -1.3098 H   0  0  0  0  0  0
   -2.2606    1.3805   -2.1971 H   0  0  0  0  0  0
   -2.2230    2.6516    0.0010 H   0  0  0  0  0  0
   -2.4504    1.1348    0.8543 H   0  0  0  0  0  0
   -0.0529    1.8446   -0.9266 H   0  0  0  0  0  0
   -0.0707    1.8742    0.8284 H   0  0  0  0  0  0
   -0.5622   -0.6217    0.8250 H   0  0  0  0  0  0
   -0.4085   -0.6139   -0.9234 H   0  0  0  0  0  0
    1.9585    0.2304   -0.7033 H   0  0  0  0  0  0
    1.7876    0.2170    1.0433 H   0  0  0  0  0  0
    2.9921   -1.7786    0.4217 H   0  0  0  0  0  0
    1.4034   -2.2803    0.9745 H   0  0  0  0  0  0
    0.6532   -2.5334   -1.4133 H   0  0  0  0  0  0
    2.2201   -1.9686   -1.9662 H   0  0  0  0  0  0
    3.3102   -3.9479   -0.8440 H   0  0  0  0  0  0
    1.7338   -4.5028   -0.3055 H   0  0  0  0  0  0
    0.9916   -4.6928   -2.7107 H   0  0  0  0  0  0
    2.5801   -4.1612   -3.2350 H   0  0  0  0  0  0
    3.6125   -6.1674   -2.1039 H   0  0  0  0  0  0
    2.0143   -6.7000   -1.6084 H   0  0  0  0  0  0
    1.3286   -6.8558   -4.0341 H   0  0  0  0  0  0
    2.9397   -6.3494   -4.5133 H   0  0  0  0  0  0
    3.9059   -8.3684   -3.3687 H   0  0  0  0  0  0
    2.2825   -8.8888   -2.9235 H   0  0  0  0  0  0
    1.6802   -9.0052   -5.3841 H   0  0  0  0  0  0
    3.3387   -8.5577   -5.7872 H   0  0  0  0  0  0
    2.4643  -11.0839   -4.2873 H   0  0  0  0  0  0
    3.0076  -10.9985   -5.9676 H   0  0  0  0  0  0
    4.6039  -10.4793   -3.7085 H   0  0  0  0  0  0
  1  2  1  0  0  0
  1 23  1  0  0  0
  1 24  1  0  0  0
  1 25  1  0  0  0
  2  3  1  0  0  0
  2 26  1  0  0  0
  2 27  1  0  0  0
  3  4  1  0  0  0
  3 28  1  0  0  0
  3 29  1  0  0  0
  4  5  1  0  0  0
  4 30  1  0  0  0
  4 31  1  0  0  0
  5  6  1  0  0  0
  5 32  1  0  0  0
  5 33  1  0  0  0
  6  7  1  0  0  0
  6 34  1  0  0  0
  6 35  1  0  0  0
  7  8  1  0  0  0
  7 36  1  0  0  0
  7 37  1  0  0  0
  8  9  1  0  0  0
  8 38  1  0  0  0
  8 39  1  0  0  0
  9 10  1  0  0  0
  9 40  1  0  0  0
  9 41  1  0  0  0
 10 11  1  0  0  0
 10 42  1  0  0  0
 10 43  1  0  0  0
 11 12  1  0  0  0
 11 44  1  0  0  0
 11 45  1  0  0  0
 12 13  1  0  0  0
 12 46  1  0  0  0
 12 47  1  0  0  0
 13 14  1  0  0  0
 13 48  1  0  0  0
 13 49  1  0  0  0
 14 15  1  0  0  0
 14 50  1  0  0  0
 14 51  1  0  0  0
 15 16  1  0  0  0
 15 52  1  0  0  0
 15 53  1  0  0  0
 16 17  1  0  0  0
 16 54  1  0  0  0
 16 55  1  0  0  0
 17 18  1  0  0  0
 17 56  1  0  0  0
 17 57  1  0  0  0
 18 19  1  0  0  0
 18 58  1  0  0  0
 18 59  1  0  0  0
 19 20  1  0  0  0
 19 60  1  0  0  0
 19 61  1  0  0  0
 20 21  1  0  0  0
 20 62  1  0  0  0
 20 63  1  0  0  0
 21 22  1  0  0  0
 21 64  1  0  0  0
 21 65  1  0  0  0
 22 66  1  0  0  0
M  END
>  <i_m_Spin_multiplicity> (1)
1

>  <s_j_Task> (1)
Single Point

>  <s_j_QM_Method> (1)
DFT(b3lyp-d3)

>  <s_j_QM_Basis> (1)
cc-pvtz(-f)

>  <i_j_Number_of_canonical_orbitals> (1)
896

>  <i_j_Geometry_convergence_category> (1)
0

>  <r_j_Gas_Phase_Energy> (1)
-902.362971648906

>  <r_j_Final_Energy> (1)
-902.362971648906

>  <r_j_HOMO> (1)
-0.28088525799805

>  <r_j_LUMO> (1)
-0.00283921906614945

>  <r_j_Polarizability> (1)
264.394239019101

>  <r_j_QM_Dipole_(debye)> (1)
1.76256931457412

>  <r_j_QM_Dipole_X_(debye)> (1)
-1.18070133919313

>  <r_j_QM_Dipole_Y_(debye)> (1)
0.828211716305464

>  <r_j_QM_Dipole_Z_(debye)> (1)
1.01324246322397

>  <r_j_Lowest_Frequency_(cm-1)> (1)
16.7138544122937

>  <r_j_Highest_Frequency_(cm-1)> (1)
3772.96383904274

>  <r_j_2nd_Lowest_Frequency_(cm-1)> (1)
33.3355274768748

>  <i_j_Num_Negative_Frequencies> (1)
0

>  <r_j_Zero_Point_Energy_(kcal/mol)> (1)
390.025850866166

>  <r_j_Entropy_(cal/mol/K)_298.15K_1.00E+00atm> (1)
174.42862156305

>  <r_j_Enthalpy_(kcal/mol)_298.15K_1.00E+00atm> (1)
17.4591882226055

>  <r_j_Free_Energy_(kcal/mol)_298.15K_1.00E+00atm> (1)
-34.5467052964178

>  <r_j_Internal_Energy_(kcal/mol)_298.15K_1.00E+00atm> (1)
16.8667026337782

>  <r_j_Heat_Capacity_(cal/mol/K)_298.15K_1.00E+00atm> (1)
103.081724436714

>  <r_j_ln(Q)_298.15K_1.00E+00atm> (1)
58.3080938133823

>  <r_j_Total_Internal_Energy_(au)_298.15K_1.00E+00atm> (1)
-901.714547086484

>  <r_j_Total_Enthalpy_(au)_298.15K_1.00E+00atm> (1)
-901.713602900592

>  <r_j_Total_Free_Energy_(au)_298.15K_1.00E+00atm> (1)
-901.796479567807

>  <r_lp_tautomer_probability> (1)
1

>  <r_epik_Ionization_Penalty> (1)
  0.0000

>  <r_epik_Ionization_Penalty_Charging> (1)
  0.0000

>  <r_epik_Ionization_Penalty_Neutral> (1)
  0.0000

>  <r_epik_State_Penalty> (1)
  0.0000

>  <r_epik_Charging_Adjusted_Penalty> (1)
0

>  <i_epik_Tot_Q> (1)
0

>  <i_epik_Tot_abs_Q> (1)
0

>  <s_lp_Force_Field> (1)
S-OPLS

>  <r_lp_Energy> (1)
12.394

>  <b_lp_Chiralities_Consistent> (1)
1

$$$$
