8530_1,4-Naphthalenedione
                    3D
 Schrodinger Suite 2021-3.
 18 19  0  0  1  0            999 V2000
    0.0057   -0.0365   -0.0627 C   0  0  0  0  0  0
   -0.0228    1.3619   -0.0557 C   0  0  0  0  0  0
    1.1654    2.0868    0.0004 C   0  0  0  0  0  0
    2.3898    1.4151    0.0499 C   0  0  0  0  0  0
    3.6566    2.1995    0.1097 C   0  0  0  0  0  0
    3.6677    3.4252    0.1166 O   0  0  0  0  0  0
    4.9274    1.4338    0.1616 C   0  0  0  0  0  0
    4.9547    0.0914    0.1546 C   0  0  0  0  0  0
    3.7162   -0.7249    0.0946 C   0  0  0  0  0  0
    3.7773   -1.9489    0.0890 O   0  0  0  0  0  0
    2.4185    0.0073    0.0426 C   0  0  0  0  0  0
    1.2224   -0.7130   -0.0137 C   0  0  0  0  0  0
   -0.9232   -0.5973   -0.1064 H   0  0  0  0  0  0
   -0.9737    1.8848   -0.0942 H   0  0  0  0  0  0
    1.1710    3.1716    0.0069 H   0  0  0  0  0  0
    5.8312    2.0343    0.2051 H   0  0  0  0  0  0
    5.8822   -0.4724    0.1920 H   0  0  0  0  0  0
    1.2719   -1.7968   -0.0181 H   0  0  0  0  0  0
  1 12  1  0  0  0
  1  2  2  0  0  0
  1 13  1  0  0  0
  2  3  1  0  0  0
  2 14  1  0  0  0
  3  4  2  0  0  0
  3 15  1  0  0  0
  4 11  1  0  0  0
  4  5  1  0  0  0
  5  6  2  0  0  0
  5  7  1  0  0  0
  7  8  2  0  0  0
  7 16  1  0  0  0
  8  9  1  0  0  0
  8 17  1  0  0  0
  9 10  2  0  0  0
  9 11  1  0  0  0
 11 12  2  0  0  0
 12 18  1  0  0  0
M  END
>  <i_m_Spin_multiplicity> (1)
1

>  <s_j_Task> (1)
Single Point

>  <s_j_QM_Method> (1)
DFT(b3lyp-d3)

>  <s_j_QM_Basis> (1)
cc-pvtz(-f)

>  <i_j_Number_of_canonical_orbitals> (1)
322

>  <i_j_Geometry_convergence_category> (1)
0

>  <r_j_Gas_Phase_Energy> (1)
-535.297896290049

>  <r_j_Final_Energy> (1)
-535.297896290049

>  <r_j_HOMO> (1)
-0.26950958828917

>  <r_j_LUMO> (1)
-0.123350506022876

>  <r_j_Polarizability> (1)
114.313128163816

>  <r_j_QM_Dipole_(debye)> (1)
1.3837292788815

>  <r_j_QM_Dipole_X_(debye)> (1)
-1.38228610574843

>  <r_j_QM_Dipole_Y_(debye)> (1)
-0.0276997146303558

>  <r_j_QM_Dipole_Z_(debye)> (1)
-0.0567852524706576

>  <r_j_Lowest_Frequency_(cm-1)> (1)
105.259276210994

>  <r_j_Highest_Frequency_(cm-1)> (1)
3162.71960311978

>  <r_j_2nd_Lowest_Frequency_(cm-1)> (1)
142.507896382833

>  <i_j_Num_Negative_Frequencies> (1)
0

>  <r_j_Zero_Point_Energy_(kcal/mol)> (1)
82.9057070187313

>  <r_j_Entropy_(cal/mol/K)_298.15K_1.00E+00atm> (1)
90.5886243432594

>  <r_j_Enthalpy_(kcal/mol)_298.15K_1.00E+00atm> (1)
5.89067507168817

>  <r_j_Free_Energy_(kcal/mol)_298.15K_1.00E+00atm> (1)
-21.1183232762546

>  <r_j_Internal_Energy_(kcal/mol)_298.15K_1.00E+00atm> (1)
5.29818948286089

>  <r_j_Heat_Capacity_(cal/mol/K)_298.15K_1.00E+00atm> (1)
33.9570219082938

>  <r_j_ln(Q)_298.15K_1.00E+00atm> (1)
35.6436066538847

>  <r_j_Total_Internal_Energy_(au)_298.15K_1.00E+00atm> (1)
-535.157334432868

>  <r_j_Total_Enthalpy_(au)_298.15K_1.00E+00atm> (1)
-535.156390246976

>  <r_j_Total_Free_Energy_(au)_298.15K_1.00E+00atm> (1)
-535.199431825851

>  <r_lp_tautomer_probability> (1)
1

>  <r_epik_Ionization_Penalty> (1)
  0.0000

>  <r_epik_Ionization_Penalty_Charging> (1)
  0.0000

>  <r_epik_Ionization_Penalty_Neutral> (1)
  0.0000

>  <r_epik_State_Penalty> (1)
  0.0000

>  <r_epik_Charging_Adjusted_Penalty> (1)
0

>  <i_epik_Tot_Q> (1)
0

>  <i_epik_Tot_abs_Q> (1)
0

>  <s_lp_Force_Field> (1)
S-OPLS

>  <r_lp_Energy> (1)
15.9562

>  <b_lp_Chiralities_Consistent> (1)
1

$$$$
