85778983_Methyl tetracosenoate
                    3D
 Schrodinger Suite 2021-3.
 75 74  0  0  1  0            999 V2000
  -11.2995    7.1501   -0.8723 C   0  0  0  0  0  0
  -10.5166    7.5197    0.3931 C   0  0  0  0  0  0
   -8.9911    7.4080    0.2432 C   0  0  0  0  0  0
   -8.4755    5.9819    0.0069 C   0  0  0  0  0  0
   -6.9451    5.8989   -0.0359 C   0  0  0  0  0  0
   -6.4100    4.4774   -0.2451 C   0  0  0  0  0  0
   -4.8787    4.4048   -0.2459 C   0  0  0  0  0  0
   -4.3258    2.9843   -0.4102 C   0  0  0  0  0  0
   -2.7945    2.9273   -0.3612 C   0  0  0  0  0  0
   -2.2220    1.5097   -0.4748 C   0  0  0  0  0  0
   -0.6924    1.4717   -0.3742 C   0  0  0  0  0  0
   -0.1110    0.0530   -0.4358 C   0  0  0  0  0  0
    1.4247   -0.0103   -0.3840 C   0  0  0  0  0  0
    2.0295    0.4914    0.9359 C   0  0  0  0  0  0
    3.5629    0.4135    1.0040 C   0  0  0  0  0  0
    4.1340   -1.0108    1.0147 C   0  0  0  0  0  0
    5.6560   -1.0425    1.1970 C   0  0  0  0  0  0
    6.2394   -2.4599    1.2266 C   0  0  0  0  0  0
    7.7580   -2.4836    1.4349 C   0  0  0  0  0  0
    8.3413   -3.9001    1.4811 C   0  0  0  0  0  0
    9.8659   -3.9103    1.7144 C   0  0  0  0  0  0
   10.4282   -5.2976    1.7194 C   0  0  0  0  0  0
   11.0254   -5.8891    2.7608 C   0  0  0  0  0  0
   11.5167   -7.2808    2.6614 C   0  0  0  0  0  0
   11.4428   -8.0001    1.6832 O   0  0  0  0  0  0
   12.0772   -7.6758    3.8325 O   0  0  0  0  0  0
   12.5833   -9.0192    3.8388 C   0  0  0  0  0  0
  -12.3748    7.3029   -0.7318 H   0  0  0  0  0  0
  -11.1502    6.1020   -1.1510 H   0  0  0  0  0  0
  -10.9834    7.7666   -1.7221 H   0  0  0  0  0  0
  -10.7688    8.5482    0.6814 H   0  0  0  0  0  0
  -10.8439    6.8818    1.2257 H   0  0  0  0  0  0
   -8.6601    8.0541   -0.5829 H   0  0  0  0  0  0
   -8.5155    7.8077    1.1494 H   0  0  0  0  0  0
   -8.8526    5.3248    0.8042 H   0  0  0  0  0  0
   -8.8828    5.5847   -0.9321 H   0  0  0  0  0  0
   -6.5674    6.5517   -0.8361 H   0  0  0  0  0  0
   -6.5354    6.3034    0.9010 H   0  0  0  0  0  0
   -6.8033    3.8223    0.5455 H   0  0  0  0  0  0
   -6.7973    4.0749   -1.1921 H   0  0  0  0  0  0
   -4.4837    5.0448   -1.0480 H   0  0  0  0  0  0
   -4.4987    4.8312    0.6938 H   0  0  0  0  0  0
   -4.7375    2.3416    0.3813 H   0  0  0  0  0  0
   -4.6798    2.5591   -1.3602 H   0  0  0  0  0  0
   -2.3804    3.5532   -1.1648 H   0  0  0  0  0  0
   -2.4492    3.3789    0.5801 H   0  0  0  0  0  0
   -2.6524    0.8808    0.3179 H   0  0  0  0  0  0
   -2.5405    1.0586   -1.4255 H   0  0  0  0  0  0
   -0.2576    2.0769   -1.1831 H   0  0  0  0  0  0
   -0.3912    1.9579    0.5627 H   0  0  0  0  0  0
   -0.5246   -0.5426    0.3910 H   0  0  0  0  0  0
   -0.4567   -0.4313   -1.3592 H   0  0  0  0  0  0
    1.7366   -1.0476   -0.5575 H   0  0  0  0  0  0
    1.8415    0.5763   -1.2158 H   0  0  0  0  0  0
    1.7293    1.5333    1.0994 H   0  0  0  0  0  0
    1.6001   -0.0831    1.7700 H   0  0  0  0  0  0
    3.9929    0.9708    0.1591 H   0  0  0  0  0  0
    3.9021    0.9324    1.9110 H   0  0  0  0  0  0
    3.6594   -1.5838    1.8246 H   0  0  0  0  0  0
    3.8739   -1.5295    0.0828 H   0  0  0  0  0  0
    6.1318   -0.4698    0.3879 H   0  0  0  0  0  0
    5.9199   -0.5234    2.1297 H   0  0  0  0  0  0
    5.7544   -3.0356    2.0278 H   0  0  0  0  0  0
    5.9913   -2.9773    0.2889 H   0  0  0  0  0  0
    8.2462   -1.9147    0.6307 H   0  0  0  0  0  0
    8.0039   -1.9595    2.3695 H   0  0  0  0  0  0
    7.8545   -4.4753    2.2794 H   0  0  0  0  0  0
    8.1130   -4.4240    0.5430 H   0  0  0  0  0  0
   10.3459   -3.3307    0.9121 H   0  0  0  0  0  0
   10.0999   -3.4008    2.6572 H   0  0  0  0  0  0
   10.3196   -5.8822    0.8056 H   0  0  0  0  0  0
   11.1690   -5.3795    3.7093 H   0  0  0  0  0  0
   12.9884   -9.1791    4.8383 H   0  0  0  0  0  0
   13.3647   -9.1416    3.0835 H   0  0  0  0  0  0
   11.7834   -9.7349    3.6291 H   0  0  0  0  0  0
  1  2  1  0  0  0
  1 28  1  0  0  0
  1 29  1  0  0  0
  1 30  1  0  0  0
  2  3  1  0  0  0
  2 31  1  0  0  0
  2 32  1  0  0  0
  3  4  1  0  0  0
  3 33  1  0  0  0
  3 34  1  0  0  0
  4  5  1  0  0  0
  4 35  1  0  0  0
  4 36  1  0  0  0
  5  6  1  0  0  0
  5 37  1  0  0  0
  5 38  1  0  0  0
  6  7  1  0  0  0
  6 39  1  0  0  0
  6 40  1  0  0  0
  7  8  1  0  0  0
  7 41  1  0  0  0
  7 42  1  0  0  0
  8  9  1  0  0  0
  8 43  1  0  0  0
  8 44  1  0  0  0
  9 10  1  0  0  0
  9 45  1  0  0  0
  9 46  1  0  0  0
 10 11  1  0  0  0
 10 47  1  0  0  0
 10 48  1  0  0  0
 11 12  1  0  0  0
 11 49  1  0  0  0
 11 50  1  0  0  0
 12 13  1  0  0  0
 12 51  1  0  0  0
 12 52  1  0  0  0
 13 14  1  0  0  0
 13 53  1  0  0  0
 13 54  1  0  0  0
 14 15  1  0  0  0
 14 55  1  0  0  0
 14 56  1  0  0  0
 15 16  1  0  0  0
 15 57  1  0  0  0
 15 58  1  0  0  0
 16 17  1  0  0  0
 16 59  1  0  0  0
 16 60  1  0  0  0
 17 18  1  0  0  0
 17 61  1  0  0  0
 17 62  1  0  0  0
 18 19  1  0  0  0
 18 63  1  0  0  0
 18 64  1  0  0  0
 19 20  1  0  0  0
 19 65  1  0  0  0
 19 66  1  0  0  0
 20 21  1  0  0  0
 20 67  1  0  0  0
 20 68  1  0  0  0
 21 22  1  0  0  0
 21 69  1  0  0  0
 21 70  1  0  0  0
 22 23  2  0  0  0
 22 71  1  0  0  0
 23 24  1  0  0  0
 23 72  1  0  0  0
 24 25  2  0  0  0
 24 26  1  0  0  0
 26 27  1  0  0  0
 27 73  1  0  0  0
 27 74  1  0  0  0
 27 75  1  0  0  0
M  END
>  <i_m_Spin_multiplicity> (1)
1

>  <s_j_Task> (1)
Single Point

>  <s_j_QM_Method> (1)
DFT(b3lyp-d3)

>  <s_j_QM_Basis> (1)
cc-pvtz(-f)

>  <i_j_Number_of_canonical_orbitals> (1)
1044

>  <i_j_Geometry_convergence_category> (1)
3

>  <r_j_Gas_Phase_Energy> (1)
-1132.50809104293

>  <r_j_Final_Energy> (1)
-1132.50809104293

>  <r_j_HOMO> (1)
-0.266602799938245

>  <r_j_LUMO> (1)
-0.0927502555385388

>  <r_j_Polarizability> (1)
323.070488983265

>  <r_j_QM_Dipole_(debye)> (1)
1.93192141455967

>  <r_j_QM_Dipole_X_(debye)> (1)
-0.524752976622547

>  <r_j_QM_Dipole_Y_(debye)> (1)
1.54323467591101

>  <r_j_QM_Dipole_Z_(debye)> (1)
1.03700597906947

>  <r_j_Lowest_Frequency_(cm-1)> (1)
17.6547036996956

>  <r_j_Highest_Frequency_(cm-1)> (1)
3135.56674489141

>  <r_j_2nd_Lowest_Frequency_(cm-1)> (1)
24.6286367515896

>  <i_j_Num_Negative_Frequencies> (1)
0

>  <r_j_Zero_Point_Energy_(kcal/mol)> (1)
434.964775221828

>  <r_j_Entropy_(cal/mol/K)_298.15K_1.00E+00atm> (1)
196.105792120803

>  <r_j_Enthalpy_(kcal/mol)_298.15K_1.00E+00atm> (1)
20.629386793752

>  <r_j_Free_Energy_(kcal/mol)_298.15K_1.00E+00atm> (1)
-37.8395551270654

>  <r_j_Internal_Energy_(kcal/mol)_298.15K_1.00E+00atm> (1)
20.0369012049247

>  <r_j_Heat_Capacity_(cal/mol/K)_298.15K_1.00E+00atm> (1)
121.700044531294

>  <r_j_ln(Q)_298.15K_1.00E+00atm> (1)
63.8657814478871

>  <r_j_Total_Internal_Energy_(au)_298.15K_1.00E+00atm> (1)
-1131.78299971255

>  <r_j_Total_Enthalpy_(au)_298.15K_1.00E+00atm> (1)
-1131.78205552666

>  <r_j_Total_Free_Energy_(au)_298.15K_1.00E+00atm> (1)
-1131.87523171716

>  <r_lp_tautomer_probability> (1)
1

>  <r_epik_Ionization_Penalty> (1)
  0.0000

>  <r_epik_Ionization_Penalty_Charging> (1)
  0.0000

>  <r_epik_Ionization_Penalty_Neutral> (1)
  0.0000

>  <r_epik_State_Penalty> (1)
  0.0000

>  <r_epik_Charging_Adjusted_Penalty> (1)
0

>  <i_epik_Tot_Q> (1)
0

>  <i_epik_Tot_abs_Q> (1)
0

>  <s_lp_Force_Field> (1)
S-OPLS

>  <r_lp_Energy> (1)
11.461709

>  <b_lp_Chiralities_Consistent> (1)
1

>  <s_epik_Chemistry_Notes> (1)
This compound has an ester and may undergo hydrolysis at high or low pH.

$$$$
