85925_4-Ethyloctane
                    3D
 Schrodinger Suite 2021-3.
 32 31  0  0  1  0            999 V2000
   -2.6712    2.9288    0.2354 C   0  0  0  0  0  0
   -2.1229    1.5395   -0.1034 C   0  0  0  0  0  0
   -0.5978    1.4467    0.0281 C   0  0  0  0  0  0
   -0.0519    0.0478   -0.2837 C   0  0  0  0  0  0
    1.4833   -0.0849   -0.1890 C   0  0  0  0  0  0
    2.1707    0.5668   -1.4081 C   0  0  0  0  0  0
    3.6665    0.8434   -1.2210 C   0  0  0  0  0  0
    1.9023   -1.5618   -0.0321 C   0  0  0  0  0  0
    1.6426   -2.1560    1.3587 C   0  0  0  0  0  0
    2.0391   -3.6323    1.4558 C   0  0  0  0  0  0
   -3.7607    2.9685    0.1324 H   0  0  0  0  0  0
   -2.2454    3.6926   -0.4256 H   0  0  0  0  0  0
   -2.4229    3.2097    1.2654 H   0  0  0  0  0  0
   -2.5884    0.7905    0.5519 H   0  0  0  0  0  0
   -2.4137    1.2681   -1.1275 H   0  0  0  0  0  0
   -0.1370    2.1931   -0.6326 H   0  0  0  0  0  0
   -0.3042    1.7264    1.0502 H   0  0  0  0  0  0
   -0.5273   -0.6632    0.4036 H   0  0  0  0  0  0
   -0.3683   -0.2556   -1.2929 H   0  0  0  0  0  0
    1.8149    0.4567    0.7118 H   0  0  0  0  0  0
    2.0175   -0.0807   -2.2833 H   0  0  0  0  0  0
    1.6707    1.5137   -1.6444 H   0  0  0  0  0  0
    4.0960    1.3115   -2.1128 H   0  0  0  0  0  0
    4.2342   -0.0725   -1.0269 H   0  0  0  0  0  0
    3.8346    1.5205   -0.3755 H   0  0  0  0  0  0
    1.3769   -2.1595   -0.7921 H   0  0  0  0  0  0
    2.9716   -1.6707   -0.2533 H   0  0  0  0  0  0
    2.2021   -1.5741    2.1039 H   0  0  0  0  0  0
    0.5835   -2.0484    1.6244 H   0  0  0  0  0  0
    1.8578   -4.0332    2.4586 H   0  0  0  0  0  0
    3.1022   -3.7715    1.2276 H   0  0  0  0  0  0
    1.4678   -4.2404    0.7449 H   0  0  0  0  0  0
  1  2  1  0  0  0
  1 11  1  0  0  0
  1 12  1  0  0  0
  1 13  1  0  0  0
  2  3  1  0  0  0
  2 14  1  0  0  0
  2 15  1  0  0  0
  3  4  1  0  0  0
  3 16  1  0  0  0
  3 17  1  0  0  0
  4  5  1  0  0  0
  4 18  1  0  0  0
  4 19  1  0  0  0
  5  6  1  0  0  0
  5  8  1  0  0  0
  5 20  1  0  0  0
  6  7  1  0  0  0
  6 21  1  0  0  0
  6 22  1  0  0  0
  7 23  1  0  0  0
  7 24  1  0  0  0
  7 25  1  0  0  0
  8  9  1  0  0  0
  8 26  1  0  0  0
  8 27  1  0  0  0
  9 10  1  0  0  0
  9 28  1  0  0  0
  9 29  1  0  0  0
 10 30  1  0  0  0
 10 31  1  0  0  0
 10 32  1  0  0  0
M  END
>  <i_m_Spin_multiplicity> (1)
1

>  <s_j_Task> (1)
Single Point

>  <s_j_QM_Method> (1)
DFT(b3lyp-d3)

>  <s_j_QM_Basis> (1)
cc-pvtz(-f)

>  <i_j_Number_of_canonical_orbitals> (1)
425

>  <i_j_Geometry_convergence_category> (1)
1

>  <r_j_Gas_Phase_Energy> (1)
-394.497817654915

>  <r_j_Final_Energy> (1)
-394.497817654915

>  <r_j_HOMO> (1)
-0.297502557749474

>  <r_j_LUMO> (1)
0.019068278282518

>  <r_j_Polarizability> (1)
123.890089832101

>  <r_j_QM_Dipole_(debye)> (1)
0.0540650510789432

>  <r_j_QM_Dipole_X_(debye)> (1)
-0.0460995056496712

>  <r_j_QM_Dipole_Y_(debye)> (1)
0.0254791668518609

>  <r_j_QM_Dipole_Z_(debye)> (1)
0.0121933335704268

>  <r_j_Lowest_Frequency_(cm-1)> (1)
71.4188771774407

>  <r_j_Highest_Frequency_(cm-1)> (1)
3049.97449661316

>  <r_j_2nd_Lowest_Frequency_(cm-1)> (1)
97.3664562562068

>  <i_j_Num_Negative_Frequencies> (1)
0

>  <r_j_Zero_Point_Energy_(kcal/mol)> (1)
189.634650200751

>  <r_j_Entropy_(cal/mol/K)_298.15K_1.00E+00atm> (1)
109.003674096474

>  <r_j_Enthalpy_(kcal/mol)_298.15K_1.00E+00atm> (1)
8.59244926543526

>  <r_j_Free_Energy_(kcal/mol)_298.15K_1.00E+00atm> (1)
-23.9069961664286

>  <r_j_Internal_Energy_(kcal/mol)_298.15K_1.00E+00atm> (1)
7.99996367660799

>  <r_j_Heat_Capacity_(cal/mol/K)_298.15K_1.00E+00atm> (1)
48.2705680175574

>  <r_j_ln(Q)_298.15K_1.00E+00atm> (1)
40.3503420458689

>  <r_j_Total_Internal_Energy_(au)_298.15K_1.00E+00atm> (1)
-394.182866848074

>  <r_j_Total_Enthalpy_(au)_298.15K_1.00E+00atm> (1)
-394.181922662181

>  <r_j_Total_Free_Energy_(au)_298.15K_1.00E+00atm> (1)
-394.233713825479

>  <r_lp_tautomer_probability> (1)
1

>  <r_epik_Ionization_Penalty> (1)
  0.0000

>  <r_epik_Ionization_Penalty_Charging> (1)
  0.0000

>  <r_epik_Ionization_Penalty_Neutral> (1)
  0.0000

>  <r_epik_State_Penalty> (1)
  0.0000

>  <r_epik_Charging_Adjusted_Penalty> (1)
0

>  <i_epik_Tot_Q> (1)
0

>  <i_epik_Tot_abs_Q> (1)
0

>  <s_lp_Force_Field> (1)
S-OPLS

>  <r_lp_Energy> (1)
6.496867

>  <b_lp_Chiralities_Consistent> (1)
1

$$$$
