86052_Beta-tocopherol; 5,8-dimethyltocol
                    3D
 Schrodinger Suite 2021-3.
 78 79  0  0  1  0            999 V2000
   -6.0967   -2.9280    1.1792 C   0  0  0  0  0  0
   -6.8632   -2.0829    0.1956 C   0  0  0  0  0  0
   -8.2117   -1.7842    0.3672 C   0  0  0  0  0  0
   -8.9074   -1.0080   -0.5641 C   0  0  0  0  0  0
   -8.2610   -0.4962   -1.6944 C   0  0  0  0  0  0
   -6.8900   -0.7706   -1.8699 C   0  0  0  0  0  0
   -6.2125   -1.5700   -0.9389 C   0  0  0  0  0  0
   -4.8787   -1.8965   -1.0458 O   0  0  0  0  0  0
   -4.2258   -1.7000   -2.3216 C   0  0  0  0  0  0
   -4.6260   -0.3237   -2.8751 C   0  0  0  0  0  0
   -6.1425   -0.2096   -3.0612 C   0  0  0  0  0  0
   -4.6438   -2.8390   -3.2636 C   0  0  0  0  0  0
   -2.7205   -1.7960   -2.0226 C   0  0  0  0  0  0
   -2.1896   -0.8570   -0.9325 C   0  0  0  0  0  0
   -0.6702   -0.9890   -0.7627 C   0  0  0  0  0  0
   -0.0823   -0.2752    0.4709 C   0  0  0  0  0  0
   -0.5010    1.2017    0.5377 C   0  0  0  0  0  0
    1.4555   -0.3833    0.5080 C   0  0  0  0  0  0
    2.0198   -1.8097    0.5313 C   0  0  0  0  0  0
    3.5488   -1.8334    0.6595 C   0  0  0  0  0  0
    4.1942   -3.2250    0.5081 C   0  0  0  0  0  0
    3.7423   -4.1840    1.6204 C   0  0  0  0  0  0
    5.7293   -3.0959    0.4512 C   0  0  0  0  0  0
    6.4766   -4.3809    0.0712 C   0  0  0  0  0  0
    7.9902   -4.1684   -0.0608 C   0  0  0  0  0  0
    8.7785   -5.3892   -0.5722 C   0  0  0  0  0  0
    8.6675   -6.5952    0.3723 C   0  0  0  0  0  0
   10.2519   -5.0197   -0.7972 C   0  0  0  0  0  0
   -9.0189    0.3362   -2.7010 C   0  0  0  0  0  0
  -10.2452   -0.7185   -0.4003 O   0  0  0  0  0  0
   -6.7457   -3.2926    1.9802 H   0  0  0  0  0  0
   -5.2752   -2.3602    1.6308 H   0  0  0  0  0  0
   -5.6377   -3.7884    0.6805 H   0  0  0  0  0  0
   -8.7351   -2.1694    1.2409 H   0  0  0  0  0  0
   -4.2963    0.4408   -2.1659 H   0  0  0  0  0  0
   -4.1025   -0.1404   -3.8195 H   0  0  0  0  0  0
   -6.4564   -0.7285   -3.9778 H   0  0  0  0  0  0
   -6.4130    0.8414   -3.2132 H   0  0  0  0  0  0
   -4.1691   -2.7242   -4.2438 H   0  0  0  0  0  0
   -5.7270   -2.8614   -3.4042 H   0  0  0  0  0  0
   -4.3413   -3.8004   -2.8394 H   0  0  0  0  0  0
   -2.5024   -2.8307   -1.7286 H   0  0  0  0  0  0
   -2.1816   -1.6214   -2.9636 H   0  0  0  0  0  0
   -2.4403    0.1812   -1.1740 H   0  0  0  0  0  0
   -2.6999   -1.0872    0.0099 H   0  0  0  0  0  0
   -0.4174   -2.0552   -0.7093 H   0  0  0  0  0  0
   -0.1717   -0.6049   -1.6662 H   0  0  0  0  0  0
   -0.4783   -0.7797    1.3663 H   0  0  0  0  0  0
   -0.1944    1.7332   -0.3722 H   0  0  0  0  0  0
   -0.0302    1.7045    1.3896 H   0  0  0  0  0  0
   -1.5835    1.3173    0.6436 H   0  0  0  0  0  0
    1.8670    0.1534   -0.3603 H   0  0  0  0  0  0
    1.8224    0.1541    1.3938 H   0  0  0  0  0  0
    1.5580   -2.3624    1.3597 H   0  0  0  0  0  0
    1.7382   -2.3409   -0.3869 H   0  0  0  0  0  0
    3.9706   -1.1677   -0.1069 H   0  0  0  0  0  0
    3.8437   -1.4026    1.6280 H   0  0  0  0  0  0
    3.8607   -3.6406   -0.4562 H   0  0  0  0  0  0
    4.0520   -3.8045    2.6026 H   0  0  0  0  0  0
    4.1739   -5.1815    1.4972 H   0  0  0  0  0  0
    2.6550   -4.3020    1.6364 H   0  0  0  0  0  0
    5.9889   -2.3145   -0.2770 H   0  0  0  0  0  0
    6.0949   -2.7345    1.4241 H   0  0  0  0  0  0
    6.2794   -5.1588    0.8168 H   0  0  0  0  0  0
    6.0793   -4.7607   -0.8816 H   0  0  0  0  0  0
    8.1705   -3.3256   -0.7431 H   0  0  0  0  0  0
    8.4012   -3.8614    0.9128 H   0  0  0  0  0  0
    8.3492   -5.6785   -1.5437 H   0  0  0  0  0  0
    9.0444   -6.3389    1.3706 H   0  0  0  0  0  0
    9.2584   -7.4397    0.0013 H   0  0  0  0  0  0
    7.6346   -6.9386    0.4832 H   0  0  0  0  0  0
   10.7259   -4.7237    0.1470 H   0  0  0  0  0  0
   10.3530   -4.1823   -1.4964 H   0  0  0  0  0  0
   10.8182   -5.8660   -1.2013 H   0  0  0  0  0  0
   -8.8502   -0.0230   -3.7224 H   0  0  0  0  0  0
   -8.6997    1.3860   -2.6748 H   0  0  0  0  0  0
  -10.0904    0.3097   -2.5022 H   0  0  0  0  0  0
  -10.5593   -1.1586    0.3992 H   0  0  0  0  0  0
  1  2  1  0  0  0
  1 31  1  0  0  0
  1 32  1  0  0  0
  1 33  1  0  0  0
  2  7  1  0  0  0
  2  3  2  0  0  0
  3  4  1  0  0  0
  3 34  1  0  0  0
  4  5  2  0  0  0
  4 30  1  0  0  0
  5  6  1  0  0  0
  5 29  1  0  0  0
  6 11  1  0  0  0
  6  7  2  0  0  0
  7  8  1  0  0  0
  8  9  1  0  0  0
  9 10  1  0  0  0
  9 12  1  0  0  0
  9 13  1  0  0  0
 10 11  1  0  0  0
 10 35  1  0  0  0
 10 36  1  0  0  0
 11 37  1  0  0  0
 11 38  1  0  0  0
 12 39  1  0  0  0
 12 40  1  0  0  0
 12 41  1  0  0  0
 13 14  1  0  0  0
 13 42  1  0  0  0
 13 43  1  0  0  0
 14 15  1  0  0  0
 14 44  1  0  0  0
 14 45  1  0  0  0
 15 16  1  0  0  0
 15 46  1  0  0  0
 15 47  1  0  0  0
 16 17  1  0  0  0
 16 18  1  0  0  0
 16 48  1  0  0  0
 17 49  1  0  0  0
 17 50  1  0  0  0
 17 51  1  0  0  0
 18 19  1  0  0  0
 18 52  1  0  0  0
 18 53  1  0  0  0
 19 20  1  0  0  0
 19 54  1  0  0  0
 19 55  1  0  0  0
 20 21  1  0  0  0
 20 56  1  0  0  0
 20 57  1  0  0  0
 21 22  1  0  0  0
 21 23  1  0  0  0
 21 58  1  0  0  0
 22 59  1  0  0  0
 22 60  1  0  0  0
 22 61  1  0  0  0
 23 24  1  0  0  0
 23 62  1  0  0  0
 23 63  1  0  0  0
 24 25  1  0  0  0
 24 64  1  0  0  0
 24 65  1  0  0  0
 25 26  1  0  0  0
 25 66  1  0  0  0
 25 67  1  0  0  0
 26 27  1  0  0  0
 26 28  1  0  0  0
 26 68  1  0  0  0
 27 69  1  0  0  0
 27 70  1  0  0  0
 27 71  1  0  0  0
 28 72  1  0  0  0
 28 73  1  0  0  0
 28 74  1  0  0  0
 29 75  1  0  0  0
 29 76  1  0  0  0
 29 77  1  0  0  0
 30 78  1  0  0  0
M  END
>  <i_m_Spin_multiplicity> (1)
1

>  <s_j_Task> (1)
Single Point

>  <s_j_QM_Method> (1)
DFT(b3lyp-d3)

>  <s_j_QM_Basis> (1)
cc-pvtz(-f)

>  <i_j_Number_of_canonical_orbitals> (1)
1107

>  <i_j_Geometry_convergence_category> (1)
3

>  <r_j_Gas_Phase_Energy> (1)
-1246.87743181007

>  <r_j_Final_Energy> (1)
-1246.87743181007

>  <r_j_HOMO> (1)
-0.195144288659897

>  <r_j_LUMO> (1)
-0.00523789177341225

>  <r_j_Polarizability> (1)
344.494908116677

>  <r_j_QM_Dipole_(debye)> (1)
0.730782962248614

>  <r_j_QM_Dipole_X_(debye)> (1)
0.470121053115792

>  <r_j_QM_Dipole_Y_(debye)> (1)
-0.357835236888071

>  <r_j_QM_Dipole_Z_(debye)> (1)
-0.430097519838717

>  <r_j_Lowest_Frequency_(cm-1)> (1)
23.733674687587

>  <r_j_Highest_Frequency_(cm-1)> (1)
3781.78350991294

>  <r_j_2nd_Lowest_Frequency_(cm-1)> (1)
29.3463030200194

>  <i_j_Num_Negative_Frequencies> (1)
0

>  <r_j_Zero_Point_Energy_(kcal/mol)> (1)
445.510357172951

>  <r_j_Entropy_(cal/mol/K)_298.15K_1.00E+00atm> (1)
193.949908651629

>  <r_j_Enthalpy_(kcal/mol)_298.15K_1.00E+00atm> (1)
21.0584399830519

>  <r_j_Free_Energy_(kcal/mol)_298.15K_1.00E+00atm> (1)
-36.7677252814313

>  <r_j_Internal_Energy_(kcal/mol)_298.15K_1.00E+00atm> (1)
20.4659543942246

>  <r_j_Heat_Capacity_(cal/mol/K)_298.15K_1.00E+00atm> (1)
131.492426869009

>  <r_j_ln(Q)_298.15K_1.00E+00atm> (1)
62.0567419271866

>  <r_j_Total_Internal_Energy_(au)_298.15K_1.00E+00atm> (1)
-1246.13485128525

>  <r_j_Total_Enthalpy_(au)_298.15K_1.00E+00atm> (1)
-1246.13390709935

>  <r_j_Total_Free_Energy_(au)_298.15K_1.00E+00atm> (1)
-1246.22605896005

>  <r_lp_tautomer_probability> (1)
1

>  <r_epik_Ionization_Penalty> (1)
  0.0000

>  <r_epik_Ionization_Penalty_Charging> (1)
  0.0000

>  <r_epik_Ionization_Penalty_Neutral> (1)
  0.0000

>  <r_epik_State_Penalty> (1)
  0.0000

>  <r_epik_Charging_Adjusted_Penalty> (1)
0

>  <i_epik_Tot_Q> (1)
0

>  <i_epik_Tot_abs_Q> (1)
0

>  <s_lp_Force_Field> (1)
S-OPLS

>  <r_lp_Energy> (1)
26.505361

>  <b_lp_Chiralities_Consistent> (1)
1

$$$$
