8606_Captan
                    3D
 Schrodinger Suite 2021-3.
 24 25  0  0  1  0            999 V2000
   -3.2672    1.7038   -0.4262 C   0  0  0  0  0  0
   -3.8863    1.2075   -1.7035 C   0  0  0  0  0  0
   -3.5618    0.0641   -2.3086 C   0  0  0  0  0  0
   -2.4983   -0.8719   -1.8007 C   0  0  0  0  0  0
   -2.2574   -0.7245   -0.2760 C   0  0  0  0  0  0
   -2.2335    0.7477    0.1867 C   0  0  0  0  0  0
   -0.7778    1.1516   -0.0256 C   0  0  0  0  0  0
   -0.3191    2.2490   -0.2092 O   0  0  0  0  0  0
   -0.0214   -0.0554    0.0808 N   0  0  0  0  0  0
   -0.8490   -1.2200    0.0184 C   0  0  0  0  0  0
   -0.4582   -2.3551    0.1033 O   0  0  0  0  0  0
    1.6841   -0.1069    0.1131 S   0  0  0  0  0  0
    1.9940   -0.0159    1.9317 C   0  0  0  0  0  0
    3.7910   -0.0629    2.0429 Cl  0  0  0  0  0  0
    1.3685    1.5099    2.6577 Cl  0  0  0  0  0  0
    1.2819   -1.3994    2.8323 Cl  0  0  0  0  0  0
   -4.0650    1.8983    0.3018 H   0  0  0  0  0  0
   -2.7807    2.6735   -0.5948 H   0  0  0  0  0  0
   -4.6523    1.8455   -2.1392 H   0  0  0  0  0  0
   -4.0535   -0.2130   -3.2382 H   0  0  0  0  0  0
   -2.7506   -1.9150   -2.0160 H   0  0  0  0  0  0
   -1.5619   -0.6770   -2.3450 H   0  0  0  0  0  0
   -2.9861   -1.3255    0.2712 H   0  0  0  0  0  0
   -2.3420    0.7580    1.2800 H   0  0  0  0  0  0
  1  6  1  0  0  0
  1  2  1  0  0  0
  1 17  1  0  0  0
  1 18  1  0  0  0
  2  3  2  0  0  0
  2 19  1  0  0  0
  3  4  1  0  0  0
  3 20  1  0  0  0
  4  5  1  0  0  0
  4 21  1  0  0  0
  4 22  1  0  0  0
  5 10  1  0  0  0
  5  6  1  0  0  0
  5 23  1  0  0  0
  6  7  1  0  0  0
  6 24  1  0  0  0
  7  8  2  0  0  0
  7  9  1  0  0  0
  9 10  1  0  0  0
  9 12  1  0  0  0
 10 11  2  0  0  0
 12 13  1  0  0  0
 13 14  1  0  0  0
 13 15  1  0  0  0
 13 16  1  0  0  0
M  END
>  <i_m_Spin_multiplicity> (1)
1

>  <s_j_Task> (1)
Single Point

>  <s_j_QM_Method> (1)
DFT(b3lyp-d3)

>  <s_j_QM_Basis> (1)
cc-pvtz(-f)

>  <i_j_Number_of_canonical_orbitals> (1)
453

>  <i_j_Geometry_convergence_category> (1)
3

>  <r_j_Gas_Phase_Energy> (1)
-2332.067017826

>  <r_j_Final_Energy> (1)
-2332.067017826

>  <r_j_HOMO> (1)
-0.258574692716836

>  <r_j_LUMO> (1)
-0.0765333571628084

>  <r_j_Polarizability> (1)
164.159925431263

>  <r_j_QM_Dipole_(debye)> (1)
3.38412108979456

>  <r_j_QM_Dipole_X_(debye)> (1)
-3.30855365624984

>  <r_j_QM_Dipole_Y_(debye)> (1)
0.269029402525987

>  <r_j_QM_Dipole_Z_(debye)> (1)
-0.658309528022026

>  <r_j_Lowest_Frequency_(cm-1)> (1)
43.067273126901

>  <r_j_Highest_Frequency_(cm-1)> (1)
3124.84307570825

>  <r_j_2nd_Lowest_Frequency_(cm-1)> (1)
50.5963867058362

>  <i_j_Num_Negative_Frequencies> (1)
0

>  <r_j_Zero_Point_Energy_(kcal/mol)> (1)
100.79189083235

>  <r_j_Entropy_(cal/mol/K)_298.15K_1.00E+00atm> (1)
122.080984851099

>  <r_j_Enthalpy_(kcal/mol)_298.15K_1.00E+00atm> (1)
9.96066964840785

>  <r_j_Free_Energy_(kcal/mol)_298.15K_1.00E+00atm> (1)
-26.4377759849473

>  <r_j_Internal_Energy_(kcal/mol)_298.15K_1.00E+00atm> (1)
9.36818405958057

>  <r_j_Heat_Capacity_(cal/mol/K)_298.15K_1.00E+00atm> (1)
56.0535926686069

>  <r_j_ln(Q)_298.15K_1.00E+00atm> (1)
44.6218042826601

>  <r_j_Total_Internal_Energy_(au)_298.15K_1.00E+00atm> (1)
-2331.89146657114

>  <r_j_Total_Enthalpy_(au)_298.15K_1.00E+00atm> (1)
-2331.89052238525

>  <r_j_Total_Free_Energy_(au)_298.15K_1.00E+00atm> (1)
-2331.94852700092

>  <r_lp_tautomer_probability> (1)
1

>  <r_epik_Ionization_Penalty> (1)
  0.0000

>  <r_epik_Ionization_Penalty_Charging> (1)
  0.0000

>  <r_epik_Ionization_Penalty_Neutral> (1)
  0.0000

>  <r_epik_State_Penalty> (1)
  0.0000

>  <r_epik_Charging_Adjusted_Penalty> (1)
0

>  <i_epik_Tot_Q> (1)
0

>  <i_epik_Tot_abs_Q> (1)
0

>  <s_lp_Force_Field> (1)
S-OPLS

>  <r_lp_Energy> (1)
1.708107

>  <b_lp_Chiralities_Consistent> (1)
1

>  <s_epik_Chemistry_Notes> (1)
This compound has a N-S or N-O group and may undergo hydrolysis at high or low pH.

$$$$
