860_9,12,15-octadecatrienoic acid
                    3D
 Schrodinger Suite 2021-3.
 49 48  0  0  1  0            999 V2000
   -9.2622   -0.9656    1.5333 C   0  0  0  0  0  0
   -8.3435   -0.9871    2.7671 C   0  0  0  0  0  0
   -6.9522   -1.4542    2.4359 C   0  0  0  0  0  0
   -5.8434   -0.7216    2.5581 C   0  0  0  0  0  0
   -4.4497   -1.1694    2.1897 C   0  0  0  0  0  0
   -3.8749   -0.3318    1.0714 C   0  0  0  0  0  0
   -2.8555    0.5187    1.2048 C   0  0  0  0  0  0
   -2.2792    1.3833    0.1169 C   0  0  0  0  0  0
   -0.7994    1.1627   -0.1237 C   0  0  0  0  0  0
   -0.1101    0.0866    0.2628 C   0  0  0  0  0  0
    1.3710   -0.1095    0.0916 C   0  0  0  0  0  0
    2.1343   -0.1389    1.4357 C   0  0  0  0  0  0
    1.7026   -1.2673    2.3810 C   0  0  0  0  0  0
    2.5122   -1.3314    3.6814 C   0  0  0  0  0  0
    2.0476   -2.4430    4.6317 C   0  0  0  0  0  0
    2.8480   -2.5241    5.9363 C   0  0  0  0  0  0
    2.3974   -3.6335    6.8866 C   0  0  0  0  0  0
    3.3714   -3.8613    8.1093 C   0  0  0  0  0  0
    2.8361   -4.3760    9.1206 O   0  0  0  0  0  0
    4.5702   -3.5315    7.9115 O   0  5  0  0  0  0
  -10.2782   -0.6535    1.7982 H   0  0  0  0  0  0
   -9.3257   -1.9582    1.0730 H   0  0  0  0  0  0
   -8.8772   -0.2743    0.7765 H   0  0  0  0  0  0
   -8.3016    0.0133    3.2152 H   0  0  0  0  0  0
   -8.7842   -1.6500    3.5257 H   0  0  0  0  0  0
   -6.8716   -2.4719    2.0474 H   0  0  0  0  0  0
   -5.9209    0.3010    2.9313 H   0  0  0  0  0  0
   -3.7931   -1.0988    3.0672 H   0  0  0  0  0  0
   -4.4721   -2.2268    1.8937 H   0  0  0  0  0  0
   -4.3718   -0.4268    0.1046 H   0  0  0  0  0  0
   -2.3636    0.6040    2.1749 H   0  0  0  0  0  0
   -2.8427    1.2408   -0.8176 H   0  0  0  0  0  0
   -2.4256    2.4411    0.3874 H   0  0  0  0  0  0
   -0.2791    1.9661   -0.6481 H   0  0  0  0  0  0
   -0.6428   -0.7109    0.7787 H   0  0  0  0  0  0
    1.5554   -1.0600   -0.4313 H   0  0  0  0  0  0
    1.7795    0.6856   -0.5457 H   0  0  0  0  0  0
    3.2086   -0.2357    1.2270 H   0  0  0  0  0  0
    2.0020    0.8286    1.9386 H   0  0  0  0  0  0
    0.6404   -1.1499    2.6348 H   0  0  0  0  0  0
    1.7825   -2.2304    1.8548 H   0  0  0  0  0  0
    3.5765   -1.4755    3.4458 H   0  0  0  0  0  0
    2.4469   -0.3618    4.1968 H   0  0  0  0  0  0
    0.9799   -2.2950    4.8580 H   0  0  0  0  0  0
    2.1081   -3.4096    4.1079 H   0  0  0  0  0  0
    3.9130   -2.6863    5.7328 H   0  0  0  0  0  0
    2.7929   -1.5550    6.4548 H   0  0  0  0  0  0
    1.3850   -3.4476    7.2695 H   0  0  0  0  0  0
    2.3431   -4.5846    6.3311 H   0  0  0  0  0  0
  1  2  1  0  0  0
  1 21  1  0  0  0
  1 22  1  0  0  0
  1 23  1  0  0  0
  2  3  1  0  0  0
  2 24  1  0  0  0
  2 25  1  0  0  0
  3  4  2  0  0  0
  3 26  1  0  0  0
  4  5  1  0  0  0
  4 27  1  0  0  0
  5  6  1  0  0  0
  5 28  1  0  0  0
  5 29  1  0  0  0
  6  7  2  0  0  0
  6 30  1  0  0  0
  7  8  1  0  0  0
  7 31  1  0  0  0
  8  9  1  0  0  0
  8 32  1  0  0  0
  8 33  1  0  0  0
  9 10  2  0  0  0
  9 34  1  0  0  0
 10 11  1  0  0  0
 10 35  1  0  0  0
 11 12  1  0  0  0
 11 36  1  0  0  0
 11 37  1  0  0  0
 12 13  1  0  0  0
 12 38  1  0  0  0
 12 39  1  0  0  0
 13 14  1  0  0  0
 13 40  1  0  0  0
 13 41  1  0  0  0
 14 15  1  0  0  0
 14 42  1  0  0  0
 14 43  1  0  0  0
 15 16  1  0  0  0
 15 44  1  0  0  0
 15 45  1  0  0  0
 16 17  1  0  0  0
 16 46  1  0  0  0
 16 47  1  0  0  0
 17 18  1  0  0  0
 17 48  1  0  0  0
 17 49  1  0  0  0
 18 19  2  0  0  0
 18 20  1  0  0  0
M  END
>  <i_m_Spin_multiplicity> (1)
1

>  <s_j_Task> (1)
Single Point

>  <s_j_QM_Method> (1)
DFT(b3lyp-d3)

>  <s_j_QM_Basis> (1)
cc-pvtz(-f)

>  <i_j_Number_of_canonical_orbitals> (1)
715

>  <i_j_Geometry_convergence_category> (1)
1

>  <r_j_Gas_Phase_Energy> (1)
-854.174600038405

>  <r_j_Final_Energy> (1)
-854.174600038405

>  <r_j_HOMO> (1)
-0.0940524686829202

>  <r_j_LUMO> (1)
0.0309969728278656

>  <r_j_Polarizability> (1)
236.50121232739

>  <r_j_QM_Dipole_(debye)> (1)
32.6837505385025

>  <r_j_QM_Dipole_X_(debye)> (1)
-20.6225089973273

>  <r_j_QM_Dipole_Y_(debye)> (1)
11.3970431820426

>  <r_j_QM_Dipole_Z_(debye)> (1)
-22.650542568002

>  <r_j_Lowest_Frequency_(cm-1)> (1)
16.0433951221601

>  <r_j_Highest_Frequency_(cm-1)> (1)
3101.79725024534

>  <r_j_2nd_Lowest_Frequency_(cm-1)> (1)
39.9148107086729

>  <i_j_Num_Negative_Frequencies> (1)
0

>  <r_j_Zero_Point_Energy_(kcal/mol)> (1)
271.293696608444

>  <r_j_Entropy_(cal/mol/K)_298.15K_1.00E+00atm> (1)
154.827150462944

>  <r_j_Enthalpy_(kcal/mol)_298.15K_1.00E+00atm> (1)
14.5423433588058

>  <r_j_Free_Energy_(kcal/mol)_298.15K_1.00E+00atm> (1)
-31.6193715517209

>  <r_j_Internal_Energy_(kcal/mol)_298.15K_1.00E+00atm> (1)
13.9498577699786

>  <r_j_Heat_Capacity_(cal/mol/K)_298.15K_1.00E+00atm> (1)
84.459657503655

>  <r_j_ln(Q)_298.15K_1.00E+00atm> (1)
53.3673259704192

>  <r_j_Total_Internal_Energy_(au)_298.15K_1.00E+00atm> (1)
-853.720035497126

>  <r_j_Total_Enthalpy_(au)_298.15K_1.00E+00atm> (1)
-853.719091311234

>  <r_j_Total_Free_Energy_(au)_298.15K_1.00E+00atm> (1)
-853.792654686956

>  <r_epik_Ionization_Penalty> (1)
  0.0048

>  <r_epik_Ionization_Penalty_Charging> (1)
  0.0048

>  <r_epik_Ionization_Penalty_Neutral> (1)
  0.0000

>  <r_epik_State_Penalty> (1)
  0.0035

>  <r_epik_Charging_Adjusted_Penalty> (1)
0.00836756904743483

>  <i_epik_Tot_Q> (1)
-1

>  <i_epik_Tot_abs_Q> (1)
1

>  <s_lp_Force_Field> (1)
S-OPLS

>  <r_lp_Energy> (1)
-0.425473

>  <b_lp_Chiralities_Consistent> (1)
1

$$$$
