86302_Dipropylene glycol dimethyl ether
                    3D
 Schrodinger Suite 2021-3.
 29 28  0  0  1  0            999 V2000
   -0.1231    2.0471    3.6349 C   0  0  0  0  0  0
   -0.5993    1.5449    2.4052 O   0  0  0  0  0  0
    0.0037    2.1724    1.2826 C   0  0  0  0  0  0
   -0.4878    1.4669    0.0249 C   0  0  0  0  0  0
   -0.0407    0.0114   -0.0324 C   0  0  0  0  0  0
    1.3778   -0.0097   -0.1037 O   0  0  0  0  0  0
    1.9268   -1.3113   -0.0267 C   0  0  0  0  0  0
    3.4440   -1.1903   -0.0800 C   0  0  0  0  0  0
    4.1388   -2.5422    0.0072 C   0  0  0  0  0  0
    5.5371   -2.3260   -0.0481 O   0  0  0  0  0  0
    6.2794   -3.5243    0.0295 C   0  0  0  0  0  0
   -0.6392    1.5055    4.4318 H   0  0  0  0  0  0
   -0.3301    3.1240    3.7486 H   0  0  0  0  0  0
    0.9626    1.8960    3.7484 H   0  0  0  0  0  0
   -0.2603    3.2432    1.2532 H   0  0  0  0  0  0
    1.1005    2.0970    1.3416 H   0  0  0  0  0  0
   -1.5825    1.5081   -0.0076 H   0  0  0  0  0  0
   -0.1060    1.9963   -0.8554 H   0  0  0  0  0  0
   -0.3889   -0.5161    0.8687 H   0  0  0  0  0  0
   -0.4777   -0.4937   -0.9102 H   0  0  0  0  0  0
    1.6111   -1.8079    0.9080 H   0  0  0  0  0  0
    1.5587   -1.9366   -0.8601 H   0  0  0  0  0  0
    3.7358   -0.6932   -1.0108 H   0  0  0  0  0  0
    3.7836   -0.5560    0.7453 H   0  0  0  0  0  0
    3.8646   -3.0579    0.9454 H   0  0  0  0  0  0
    3.8162   -3.1975   -0.8223 H   0  0  0  0  0  0
    7.3377   -3.2561   -0.0210 H   0  0  0  0  0  0
    6.0473   -4.2081   -0.8035 H   0  0  0  0  0  0
    6.0953   -4.0633    0.9733 H   0  0  0  0  0  0
  1  2  1  0  0  0
  1 12  1  0  0  0
  1 13  1  0  0  0
  1 14  1  0  0  0
  2  3  1  0  0  0
  3  4  1  0  0  0
  3 15  1  0  0  0
  3 16  1  0  0  0
  4  5  1  0  0  0
  4 17  1  0  0  0
  4 18  1  0  0  0
  5  6  1  0  0  0
  5 19  1  0  0  0
  5 20  1  0  0  0
  6  7  1  0  0  0
  7  8  1  0  0  0
  7 21  1  0  0  0
  7 22  1  0  0  0
  8  9  1  0  0  0
  8 23  1  0  0  0
  8 24  1  0  0  0
  9 10  1  0  0  0
  9 25  1  0  0  0
  9 26  1  0  0  0
 10 11  1  0  0  0
 11 27  1  0  0  0
 11 28  1  0  0  0
 11 29  1  0  0  0
M  END
>  <i_m_Spin_multiplicity> (1)
1

>  <s_j_Task> (1)
Single Point

>  <s_j_QM_Method> (1)
DFT(b3lyp-d3)

>  <s_j_QM_Basis> (1)
cc-pvtz(-f)

>  <i_j_Number_of_canonical_orbitals> (1)
415

>  <i_j_Geometry_convergence_category> (1)
0

>  <r_j_Gas_Phase_Energy> (1)
-541.535516892919

>  <r_j_Final_Energy> (1)
-541.535516892919

>  <r_j_HOMO> (1)
-0.256719938449746

>  <r_j_LUMO> (1)
0.0161186221996879

>  <r_j_Polarizability> (1)
114.447831777735

>  <r_j_QM_Dipole_(debye)> (1)
1.07918984691322

>  <r_j_QM_Dipole_X_(debye)> (1)
-0.244892752170669

>  <r_j_QM_Dipole_Y_(debye)> (1)
-1.00738644266063

>  <r_j_QM_Dipole_Z_(debye)> (1)
0.29975126481538

>  <r_j_Lowest_Frequency_(cm-1)> (1)
33.9776504317748

>  <r_j_Highest_Frequency_(cm-1)> (1)
3062.92442720833

>  <r_j_2nd_Lowest_Frequency_(cm-1)> (1)
67.5065691432819

>  <i_j_Num_Negative_Frequencies> (1)
0

>  <r_j_Zero_Point_Energy_(kcal/mol)> (1)
162.811562214025

>  <r_j_Entropy_(cal/mol/K)_298.15K_1.00E+00atm> (1)
113.3828012417

>  <r_j_Enthalpy_(kcal/mol)_298.15K_1.00E+00atm> (1)
8.91665894171356

>  <r_j_Free_Energy_(kcal/mol)_298.15K_1.00E+00atm> (1)
-24.8884232484994

>  <r_j_Internal_Energy_(kcal/mol)_298.15K_1.00E+00atm> (1)
8.32417335288629

>  <r_j_Heat_Capacity_(cal/mol/K)_298.15K_1.00E+00atm> (1)
47.4925918884575

>  <r_j_ln(Q)_298.15K_1.00E+00atm> (1)
42.0067993514608

>  <r_j_Total_Internal_Energy_(au)_298.15K_1.00E+00atm> (1)
-541.262794736922

>  <r_j_Total_Enthalpy_(au)_298.15K_1.00E+00atm> (1)
-541.26185055103

>  <r_j_Total_Free_Energy_(au)_298.15K_1.00E+00atm> (1)
-541.315722378956

>  <r_lp_tautomer_probability> (1)
1

>  <r_epik_Ionization_Penalty> (1)
  0.0000

>  <r_epik_Ionization_Penalty_Charging> (1)
  0.0000

>  <r_epik_Ionization_Penalty_Neutral> (1)
  0.0000

>  <r_epik_State_Penalty> (1)
  0.0000

>  <r_epik_Charging_Adjusted_Penalty> (1)
0

>  <i_epik_Tot_Q> (1)
0

>  <i_epik_Tot_abs_Q> (1)
0

>  <s_lp_Force_Field> (1)
S-OPLS

>  <r_lp_Energy> (1)
1.426977

>  <b_lp_Chiralities_Consistent> (1)
1

$$$$
