86544_2,3-Dimethyl decane
                    3D
 Schrodinger Suite 2021-3.
 38 37  0  0  1  0            999 V2000
   -0.7198    5.8551   -2.7173 C   0  0  0  0  0  0
   -0.2556    4.3969   -2.6586 C   0  0  0  0  0  0
   -0.5576    3.7225   -1.3150 C   0  0  0  0  0  0
   -0.0894    2.2644   -1.2503 C   0  0  0  0  0  0
   -0.3995    1.5845    0.0900 C   0  0  0  0  0  0
    0.0366    0.1117    0.1711 C   0  0  0  0  0  0
    1.5610   -0.0758    0.2210 C   0  0  0  0  0  0
    2.0532   -1.5303    0.0577 C   0  0  0  0  0  0
    1.4137   -2.4507    1.1108 C   0  0  0  0  0  0
    3.6054   -1.6188    0.0831 C   0  0  0  0  0  0
    4.2645   -0.7106   -0.9698 C   0  0  0  0  0  0
    4.1089   -3.0594   -0.1134 C   0  0  0  0  0  0
   -0.4935    6.3116   -3.6866 H   0  0  0  0  0  0
   -0.2295    6.4561   -1.9427 H   0  0  0  0  0  0
   -1.8016    5.9310   -2.5571 H   0  0  0  0  0  0
   -0.7349    3.8250   -3.4649 H   0  0  0  0  0  0
    0.8246    4.3466   -2.8527 H   0  0  0  0  0  0
   -0.0801    4.2944   -0.5062 H   0  0  0  0  0  0
   -1.6388    3.7690   -1.1199 H   0  0  0  0  0  0
   -0.5654    1.6932   -2.0605 H   0  0  0  0  0  0
    0.9895    2.2306   -1.4507 H   0  0  0  0  0  0
    0.0775    2.1492    0.9043 H   0  0  0  0  0  0
   -1.4808    1.6479    0.2719 H   0  0  0  0  0  0
   -0.4221   -0.3401    1.0578 H   0  0  0  0  0  0
   -0.3698   -0.4325   -0.6942 H   0  0  0  0  0  0
    2.0078    0.5361   -0.5674 H   0  0  0  0  0  0
    1.9407    0.3276    1.1721 H   0  0  0  0  0  0
    1.7273   -1.8779   -0.9367 H   0  0  0  0  0  0
    1.7293   -2.1598    2.1208 H   0  0  0  0  0  0
    1.6881   -3.4978    0.9629 H   0  0  0  0  0  0
    0.3226   -2.4000    1.0762 H   0  0  0  0  0  0
    3.9350   -1.2787    1.0776 H   0  0  0  0  0  0
    3.8867   -0.9434   -1.9734 H   0  0  0  0  0  0
    5.3492   -0.8595   -0.9833 H   0  0  0  0  0  0
    4.0851    0.3509   -0.7828 H   0  0  0  0  0  0
    3.7344   -3.4752   -1.0574 H   0  0  0  0  0  0
    3.7977   -3.7274    0.6933 H   0  0  0  0  0  0
    5.2029   -3.0846   -0.1532 H   0  0  0  0  0  0
  1  2  1  0  0  0
  1 13  1  0  0  0
  1 14  1  0  0  0
  1 15  1  0  0  0
  2  3  1  0  0  0
  2 16  1  0  0  0
  2 17  1  0  0  0
  3  4  1  0  0  0
  3 18  1  0  0  0
  3 19  1  0  0  0
  4  5  1  0  0  0
  4 20  1  0  0  0
  4 21  1  0  0  0
  5  6  1  0  0  0
  5 22  1  0  0  0
  5 23  1  0  0  0
  6  7  1  0  0  0
  6 24  1  0  0  0
  6 25  1  0  0  0
  7  8  1  0  0  0
  7 26  1  0  0  0
  7 27  1  0  0  0
  8  9  1  0  0  0
  8 10  1  0  0  0
  8 28  1  0  0  0
  9 29  1  0  0  0
  9 30  1  0  0  0
  9 31  1  0  0  0
 10 11  1  0  0  0
 10 12  1  0  0  0
 10 32  1  0  0  0
 11 33  1  0  0  0
 11 34  1  0  0  0
 11 35  1  0  0  0
 12 36  1  0  0  0
 12 37  1  0  0  0
 12 38  1  0  0  0
M  END
>  <i_m_Spin_multiplicity> (1)
1

>  <s_j_Task> (1)
Single Point

>  <s_j_QM_Method> (1)
DFT(b3lyp-d3)

>  <s_j_QM_Basis> (1)
cc-pvtz(-f)

>  <i_j_Number_of_canonical_orbitals> (1)
506

>  <i_j_Geometry_convergence_category> (1)
3

>  <r_j_Gas_Phase_Energy> (1)
-473.155542168899

>  <r_j_Final_Energy> (1)
-473.155542168899

>  <r_j_HOMO> (1)
-0.284132533874319

>  <r_j_LUMO> (1)
0.0238168311679346

>  <r_j_Polarizability> (1)
148.176591481001

>  <r_j_QM_Dipole_(debye)> (1)
0.0222627735369653

>  <r_j_QM_Dipole_X_(debye)> (1)
-0.0190478160605118

>  <r_j_QM_Dipole_Y_(debye)> (1)
0.00976012499442514

>  <r_j_QM_Dipole_Z_(debye)> (1)
0.00612794818649039

>  <r_j_Lowest_Frequency_(cm-1)> (1)
51.9751200758537

>  <r_j_Highest_Frequency_(cm-1)> (1)
3073.82406141592

>  <r_j_2nd_Lowest_Frequency_(cm-1)> (1)
62.4919327400226

>  <i_j_Num_Negative_Frequencies> (1)
0

>  <r_j_Zero_Point_Energy_(kcal/mol)> (1)
225.318868121978

>  <r_j_Entropy_(cal/mol/K)_298.15K_1.00E+00atm> (1)
119.36173175902

>  <r_j_Enthalpy_(kcal/mol)_298.15K_1.00E+00atm> (1)
10.0445054792933

>  <r_j_Free_Energy_(kcal/mol)_298.15K_1.00E+00atm> (1)
-25.5431948446585

>  <r_j_Internal_Energy_(kcal/mol)_298.15K_1.00E+00atm> (1)
9.45201989046599

>  <r_j_Heat_Capacity_(cal/mol/K)_298.15K_1.00E+00atm> (1)
58.1792786322708

>  <r_j_ln(Q)_298.15K_1.00E+00atm> (1)
43.1119259714265

>  <r_j_Total_Internal_Energy_(au)_298.15K_1.00E+00atm> (1)
-472.781410941824

>  <r_j_Total_Enthalpy_(au)_298.15K_1.00E+00atm> (1)
-472.780466755932

>  <r_j_Total_Free_Energy_(au)_298.15K_1.00E+00atm> (1)
-472.837179366698

>  <r_lp_tautomer_probability> (1)
1

>  <r_epik_Ionization_Penalty> (1)
  0.0000

>  <r_epik_Ionization_Penalty_Charging> (1)
  0.0000

>  <r_epik_Ionization_Penalty_Neutral> (1)
  0.0000

>  <r_epik_State_Penalty> (1)
  0.0000

>  <r_epik_Charging_Adjusted_Penalty> (1)
0

>  <i_epik_Tot_Q> (1)
0

>  <i_epik_Tot_abs_Q> (1)
0

>  <s_lp_Force_Field> (1)
S-OPLS

>  <r_lp_Energy> (1)
9.05163

>  <b_lp_Chiralities_Consistent> (1)
1

$$$$
