8657_1,2-diethylbenzene
                    3D
 Schrodinger Suite 2021-3.
 24 24  0  0  1  0            999 V2000
   -0.5623    1.4674   -0.0676 C   0  0  0  0  0  0
   -0.0189    0.0271   -0.0710 C   0  0  0  0  0  0
    1.4961   -0.0129   -0.0095 C   0  0  0  0  0  0
    2.2205   -0.0193   -1.2088 C   0  0  0  0  0  0
    3.6135   -0.0085   -1.2227 C   0  0  0  0  0  0
    4.3105    0.0086   -0.0156 C   0  0  0  0  0  0
    3.6018    0.0192    1.1839 C   0  0  0  0  0  0
    2.2011    0.0127    1.2116 C   0  0  0  0  0  0
    1.4969   -0.0272    2.5545 C   0  0  0  0  0  0
    1.2224   -1.4674    3.0241 C   0  0  0  0  0  0
   -1.6561    1.4793   -0.1211 H   0  0  0  0  0  0
   -0.1709    2.0275   -0.9229 H   0  0  0  0  0  0
   -0.2592    2.0010    0.8391 H   0  0  0  0  0  0
   -0.4577   -0.5314    0.7618 H   0  0  0  0  0  0
   -0.3533   -0.4783   -0.9843 H   0  0  0  0  0  0
    1.6753   -0.0332   -2.1501 H   0  0  0  0  0  0
    4.1491   -0.0159   -2.1678 H   0  0  0  0  0  0
    5.3967    0.0164   -0.0068 H   0  0  0  0  0  0
    4.1444    0.0332    2.1267 H   0  0  0  0  0  0
    2.1205    0.4787    3.3005 H   0  0  0  0  0  0
    0.5560    0.5310    2.5180 H   0  0  0  0  0  0
    0.7209   -1.4788    3.9975 H   0  0  0  0  0  0
    2.1590   -2.0270    3.1141 H   0  0  0  0  0  0
    0.5897   -2.0017    2.3080 H   0  0  0  0  0  0
  1  2  1  0  0  0
  1 11  1  0  0  0
  1 12  1  0  0  0
  1 13  1  0  0  0
  2  3  1  0  0  0
  2 14  1  0  0  0
  2 15  1  0  0  0
  3  8  1  0  0  0
  3  4  2  0  0  0
  4  5  1  0  0  0
  4 16  1  0  0  0
  5  6  2  0  0  0
  5 17  1  0  0  0
  6  7  1  0  0  0
  6 18  1  0  0  0
  7  8  2  0  0  0
  7 19  1  0  0  0
  8  9  1  0  0  0
  9 10  1  0  0  0
  9 20  1  0  0  0
  9 21  1  0  0  0
 10 22  1  0  0  0
 10 23  1  0  0  0
 10 24  1  0  0  0
M  END
>  <i_m_Spin_multiplicity> (1)
1

>  <s_j_Task> (1)
Single Point

>  <s_j_QM_Method> (1)
DFT(b3lyp-d3)

>  <s_j_QM_Basis> (1)
cc-pvtz(-f)

>  <i_j_Number_of_canonical_orbitals> (1)
348

>  <i_j_Geometry_convergence_category> (1)
0

>  <r_j_Gas_Phase_Energy> (1)
-389.652680835845

>  <r_j_Final_Energy> (1)
-389.652680835845

>  <r_j_HOMO> (1)
-0.240647127268506

>  <r_j_LUMO> (1)
-0.0113530583225369

>  <r_j_Polarizability> (1)
114.31528962655

>  <r_j_QM_Dipole_(debye)> (1)
0.555775063539019

>  <r_j_QM_Dipole_X_(debye)> (1)
-0.481289332084487

>  <r_j_QM_Dipole_Y_(debye)> (1)
0.000297048007837523

>  <r_j_QM_Dipole_Z_(debye)> (1)
0.277932387166284

>  <r_j_Lowest_Frequency_(cm-1)> (1)
111.3204652533

>  <r_j_Highest_Frequency_(cm-1)> (1)
3142.6340232488

>  <r_j_2nd_Lowest_Frequency_(cm-1)> (1)
121.179426403666

>  <i_j_Num_Negative_Frequencies> (1)
0

>  <r_j_Zero_Point_Energy_(kcal/mol)> (1)
133.503740617276

>  <r_j_Entropy_(cal/mol/K)_298.15K_1.00E+00atm> (1)
94.393239923359

>  <r_j_Enthalpy_(kcal/mol)_298.15K_1.00E+00atm> (1)
6.60916116505549

>  <r_j_Free_Energy_(kcal/mol)_298.15K_1.00E+00atm> (1)
-21.534183318094

>  <r_j_Internal_Energy_(kcal/mol)_298.15K_1.00E+00atm> (1)
6.01667557622822

>  <r_j_Heat_Capacity_(cal/mol/K)_298.15K_1.00E+00atm> (1)
37.8439774541725

>  <r_j_ln(Q)_298.15K_1.00E+00atm> (1)
36.3454972140627

>  <r_j_Total_Internal_Energy_(au)_298.15K_1.00E+00atm> (1)
-389.430340898579

>  <r_j_Total_Enthalpy_(au)_298.15K_1.00E+00atm> (1)
-389.429396712687

>  <r_j_Total_Free_Energy_(au)_298.15K_1.00E+00atm> (1)
-389.474245987205

>  <r_lp_tautomer_probability> (1)
1

>  <r_epik_Ionization_Penalty> (1)
  0.0000

>  <r_epik_Ionization_Penalty_Charging> (1)
  0.0000

>  <r_epik_Ionization_Penalty_Neutral> (1)
  0.0000

>  <r_epik_State_Penalty> (1)
  0.0000

>  <r_epik_Charging_Adjusted_Penalty> (1)
0

>  <i_epik_Tot_Q> (1)
0

>  <i_epik_Tot_abs_Q> (1)
0

>  <s_lp_Force_Field> (1)
S-OPLS

>  <r_lp_Energy> (1)
11.9897

>  <b_lp_Chiralities_Consistent> (1)
1

$$$$
