86869_Dehydroabietane
                    3D
 Schrodinger Suite 2021-3.
 50 52  0  0  1  0            999 V2000
   -0.5553   -0.9208   -1.0998 C   0  0  0  0  0  0
   -0.0128    0.0425   -0.0278 C   0  0  0  0  0  0
   -0.5883    1.4570   -0.2217 C   0  0  0  0  0  0
    1.5088    0.0497   -0.0061 C   0  0  0  0  0  0
    2.2176   -0.3970    1.1083 C   0  0  0  0  0  0
    3.6175   -0.4213    1.1555 C   0  0  0  0  0  0
    4.3557    0.0142    0.0413 C   0  0  0  0  0  0
    3.6439    0.4696   -1.0784 C   0  0  0  0  0  0
    2.2536    0.4869   -1.1085 C   0  0  0  0  0  0
    5.8885    0.0377    0.1033 C   0  0  0  0  0  0
    6.5727    0.0167   -1.2838 C   0  0  0  0  0  0
    6.4300   -1.3173   -2.0175 C   0  0  0  0  0  0
    7.0194   -2.4443   -1.1654 C   0  0  0  0  0  0
    6.3623   -2.5710    0.2327 C   0  0  0  0  0  0
    6.4198   -1.1699    0.9463 C   0  0  0  0  0  0
    5.8102   -1.1233    2.3634 C   0  0  0  0  0  0
    4.2732   -0.9699    2.4105 C   0  0  0  0  0  0
    4.9460   -3.1645    0.0738 C   0  0  0  0  0  0
    7.1994   -3.5822    1.0449 C   0  0  0  0  0  0
    6.2884    1.3749    0.7813 C   0  0  0  0  0  0
   -0.1718   -1.9347   -0.9500 H   0  0  0  0  0  0
   -0.2585   -0.5968   -2.1036 H   0  0  0  0  0  0
   -1.6501   -0.9588   -1.0718 H   0  0  0  0  0  0
   -0.3524   -0.3232    0.9504 H   0  0  0  0  0  0
   -0.2260    2.1404    0.5523 H   0  0  0  0  0  0
   -1.6831    1.4402   -0.1814 H   0  0  0  0  0  0
   -0.2982    1.8702   -1.1940 H   0  0  0  0  0  0
    1.6640   -0.7532    1.9763 H   0  0  0  0  0  0
    4.1821    0.8114   -1.9557 H   0  0  0  0  0  0
    1.7457    0.8395   -2.0024 H   0  0  0  0  0  0
    6.2137    0.8482   -1.8997 H   0  0  0  0  0  0
    7.6419    0.2125   -1.1213 H   0  0  0  0  0  0
    5.3742   -1.5138   -2.2356 H   0  0  0  0  0  0
    6.9444   -1.2706   -2.9848 H   0  0  0  0  0  0
    6.9378   -3.4065   -1.6871 H   0  0  0  0  0  0
    8.0948   -2.2547   -1.0336 H   0  0  0  0  0  0
    7.4965   -0.9793    1.0711 H   0  0  0  0  0  0
    6.1030   -2.0093    2.9332 H   0  0  0  0  0  0
    6.2676   -0.2808    2.8904 H   0  0  0  0  0  0
    4.0018   -0.3277    3.2586 H   0  0  0  0  0  0
    3.8059   -1.9376    2.6287 H   0  0  0  0  0  0
    4.4649   -3.3210    1.0428 H   0  0  0  0  0  0
    5.0147   -4.1430   -0.4158 H   0  0  0  0  0  0
    4.2862   -2.5362   -0.5243 H   0  0  0  0  0  0
    6.7405   -3.8183    2.0099 H   0  0  0  0  0  0
    8.2105   -3.2044    1.2353 H   0  0  0  0  0  0
    7.2938   -4.5241    0.4929 H   0  0  0  0  0  0
    7.3677    1.4127    0.9719 H   0  0  0  0  0  0
    5.7658    1.5330    1.7278 H   0  0  0  0  0  0
    6.0281    2.2128    0.1261 H   0  0  0  0  0  0
  1  2  1  0  0  0
  1 21  1  0  0  0
  1 22  1  0  0  0
  1 23  1  0  0  0
  2  3  1  0  0  0
  2  4  1  0  0  0
  2 24  1  0  0  0
  3 25  1  0  0  0
  3 26  1  0  0  0
  3 27  1  0  0  0
  4  9  1  0  0  0
  4  5  2  0  0  0
  5  6  1  0  0  0
  5 28  1  0  0  0
  6 17  1  0  0  0
  6  7  2  0  0  0
  7  8  1  0  0  0
  7 10  1  0  0  0
  8  9  2  0  0  0
  8 29  1  0  0  0
  9 30  1  0  0  0
 10 15  1  0  0  0
 10 11  1  0  0  0
 10 20  1  0  0  0
 11 12  1  0  0  0
 11 31  1  0  0  0
 11 32  1  0  0  0
 12 13  1  0  0  0
 12 33  1  0  0  0
 12 34  1  0  0  0
 13 14  1  0  0  0
 13 35  1  0  0  0
 13 36  1  0  0  0
 14 15  1  0  0  0
 14 18  1  0  0  0
 14 19  1  0  0  0
 15 16  1  0  0  0
 15 37  1  0  0  0
 16 17  1  0  0  0
 16 38  1  0  0  0
 16 39  1  0  0  0
 17 40  1  0  0  0
 17 41  1  0  0  0
 18 42  1  0  0  0
 18 43  1  0  0  0
 18 44  1  0  0  0
 19 45  1  0  0  0
 19 46  1  0  0  0
 19 47  1  0  0  0
 20 48  1  0  0  0
 20 49  1  0  0  0
 20 50  1  0  0  0
M  END
>  <i_m_Spin_multiplicity> (1)
1

>  <s_j_Task> (1)
Single Point

>  <s_j_QM_Method> (1)
DFT(b3lyp-d3)

>  <s_j_QM_Basis> (1)
cc-pvtz(-f)

>  <i_j_Number_of_canonical_orbitals> (1)
715

>  <i_j_Geometry_convergence_category> (1)
3

>  <r_j_Gas_Phase_Energy> (1)
-780.526714228871

>  <r_j_Final_Energy> (1)
-780.526714228871

>  <r_j_HOMO> (1)
-0.230258607631595

>  <r_j_LUMO> (1)
-0.0134688901392985

>  <r_j_Polarizability> (1)
225.51881879874

>  <r_j_QM_Dipole_(debye)> (1)
0.339576594860846

>  <r_j_QM_Dipole_X_(debye)> (1)
0.144693349157397

>  <r_j_QM_Dipole_Y_(debye)> (1)
-0.0780707371601065

>  <r_j_QM_Dipole_Z_(debye)> (1)
0.297121285818065

>  <r_j_Lowest_Frequency_(cm-1)> (1)
51.9851696268865

>  <r_j_Highest_Frequency_(cm-1)> (1)
3148.38456879106

>  <r_j_2nd_Lowest_Frequency_(cm-1)> (1)
75.3493765724583

>  <i_j_Num_Negative_Frequencies> (1)
0

>  <r_j_Zero_Point_Energy_(kcal/mol)> (1)
285.473049220734

>  <r_j_Entropy_(cal/mol/K)_298.15K_1.00E+00atm> (1)
130.991944324801

>  <r_j_Enthalpy_(kcal/mol)_298.15K_1.00E+00atm> (1)
12.1330384379721

>  <r_j_Free_Energy_(kcal/mol)_298.15K_1.00E+00atm> (1)
-26.9222097624672

>  <r_j_Internal_Energy_(kcal/mol)_298.15K_1.00E+00atm> (1)
11.5405528491448

>  <r_j_Heat_Capacity_(cal/mol/K)_298.15K_1.00E+00atm> (1)
79.3331555850505

>  <r_j_ln(Q)_298.15K_1.00E+00atm> (1)
45.4394339206717

>  <r_j_Total_Internal_Energy_(au)_298.15K_1.00E+00atm> (1)
-780.053392922549

>  <r_j_Total_Enthalpy_(au)_298.15K_1.00E+00atm> (1)
-780.052448736657

>  <r_j_Total_Free_Energy_(au)_298.15K_1.00E+00atm> (1)
-780.114687236739

>  <r_lp_tautomer_probability> (1)
1

>  <r_epik_Ionization_Penalty> (1)
  0.0000

>  <r_epik_Ionization_Penalty_Charging> (1)
  0.0000

>  <r_epik_Ionization_Penalty_Neutral> (1)
  0.0000

>  <r_epik_State_Penalty> (1)
  0.0000

>  <r_epik_Charging_Adjusted_Penalty> (1)
0

>  <i_epik_Tot_Q> (1)
0

>  <i_epik_Tot_abs_Q> (1)
0

>  <s_lp_Force_Field> (1)
S-OPLS

>  <r_lp_Energy> (1)
53.0592

>  <b_lp_Chiralities_Consistent> (1)
1

$$$$
