87622_Isobutyltrimethoxysilane
                    3D
 Schrodinger Suite 2021-3.
 29 28  0  0  1  0            999 V2000
   -0.7645    2.2731    0.6175 C   0  0  0  0  0  0
   -0.6552    1.3233   -0.5844 C   0  0  0  0  0  0
   -2.0441    1.0352   -1.1722 C   0  0  0  0  0  0
    0.0633    0.0048   -0.2087 C   0  0  0  0  0  0
    1.8964    0.1322    0.1259 Si  0  0  0  0  0  0
    2.6983    0.9427   -1.0697 O   0  0  0  0  0  0
    2.9613    0.3942   -2.3547 C   0  0  0  0  0  0
    2.1390    0.9637    1.5312 O   0  0  0  0  0  0
    3.4430    1.3442    1.9683 C   0  0  0  0  0  0
    2.5958   -1.3743    0.1866 O   0  0  0  0  0  0
    2.2275   -2.3521    1.1500 C   0  0  0  0  0  0
   -1.3696    1.8156    1.4105 H   0  0  0  0  0  0
   -1.2483    3.2128    0.3296 H   0  0  0  0  0  0
    0.2155    2.5024    1.0432 H   0  0  0  0  0  0
   -0.0564    1.8230   -1.3593 H   0  0  0  0  0  0
   -2.6746    0.5187   -0.4377 H   0  0  0  0  0  0
   -1.9795    0.3992   -2.0621 H   0  0  0  0  0  0
   -2.5554    1.9619   -1.4564 H   0  0  0  0  0  0
   -0.4405   -0.4589    0.6512 H   0  0  0  0  0  0
   -0.0388   -0.7162   -1.0332 H   0  0  0  0  0  0
    3.6038    1.0927   -2.8990 H   0  0  0  0  0  0
    2.0347    0.2601   -2.9305 H   0  0  0  0  0  0
    3.4716   -0.5733   -2.2807 H   0  0  0  0  0  0
    3.3342    1.9334    2.8829 H   0  0  0  0  0  0
    3.9527    1.9499    1.2105 H   0  0  0  0  0  0
    4.0618    0.4648    2.1881 H   0  0  0  0  0  0
    2.8879   -3.2163    1.0323 H   0  0  0  0  0  0
    1.1915   -2.6899    1.0099 H   0  0  0  0  0  0
    2.3324   -1.9718    2.1747 H   0  0  0  0  0  0
  1  2  1  0  0  0
  1 12  1  0  0  0
  1 13  1  0  0  0
  1 14  1  0  0  0
  2  3  1  0  0  0
  2  4  1  0  0  0
  2 15  1  0  0  0
  3 16  1  0  0  0
  3 17  1  0  0  0
  3 18  1  0  0  0
  4  5  1  0  0  0
  4 19  1  0  0  0
  4 20  1  0  0  0
  5  6  1  0  0  0
  5  8  1  0  0  0
  5 10  1  0  0  0
  6  7  1  0  0  0
  7 21  1  0  0  0
  7 22  1  0  0  0
  7 23  1  0  0  0
  8  9  1  0  0  0
  9 24  1  0  0  0
  9 25  1  0  0  0
  9 26  1  0  0  0
 10 11  1  0  0  0
 11 27  1  0  0  0
 11 28  1  0  0  0
 11 29  1  0  0  0
M  END
>  <i_m_Spin_multiplicity> (1)
1

>  <s_j_Task> (1)
Single Point

>  <s_j_QM_Method> (1)
DFT(b3lyp-d3)

>  <s_j_QM_Basis> (1)
cc-pvtz(-f)

>  <i_j_Number_of_canonical_orbitals> (1)
419

>  <i_j_Geometry_convergence_category> (1)
1

>  <r_j_Gas_Phase_Energy> (1)
-793.112764477284

>  <r_j_Final_Energy> (1)
-793.112764477284

>  <r_j_HOMO> (1)
-0.274401240341041

>  <r_j_LUMO> (1)
0.0186697784773839

>  <r_j_Polarizability> (1)
117.681300492674

>  <r_j_QM_Dipole_(debye)> (1)
1.06758630968219

>  <r_j_QM_Dipole_X_(debye)> (1)
0.131551010769185

>  <r_j_QM_Dipole_Y_(debye)> (1)
-1.05553036381637

>  <r_j_QM_Dipole_Z_(debye)> (1)
-0.0910522446079185

>  <r_j_Lowest_Frequency_(cm-1)> (1)
54.2444077397654

>  <r_j_Highest_Frequency_(cm-1)> (1)
3072.738227268

>  <r_j_2nd_Lowest_Frequency_(cm-1)> (1)
66.4446942319748

>  <i_j_Num_Negative_Frequencies> (1)
0

>  <r_j_Zero_Point_Energy_(kcal/mol)> (1)
157.370801321404

>  <r_j_Entropy_(cal/mol/K)_298.15K_1.00E+00atm> (1)
121.165882055128

>  <r_j_Enthalpy_(kcal/mol)_298.15K_1.00E+00atm> (1)
10.232151786271

>  <r_j_Free_Energy_(kcal/mol)_298.15K_1.00E+00atm> (1)
-25.8934559484653

>  <r_j_Internal_Energy_(kcal/mol)_298.15K_1.00E+00atm> (1)
9.63966619744372

>  <r_j_Heat_Capacity_(cal/mol/K)_298.15K_1.00E+00atm> (1)
54.470065727799

>  <r_j_ln(Q)_298.15K_1.00E+00atm> (1)
43.703098331416

>  <r_j_Total_Internal_Energy_(au)_298.15K_1.00E+00atm> (1)
-792.846616354422

>  <r_j_Total_Enthalpy_(au)_298.15K_1.00E+00atm> (1)
-792.84567216853

>  <r_j_Total_Free_Energy_(au)_298.15K_1.00E+00atm> (1)
-792.903241989324

>  <r_lp_tautomer_probability> (1)
1

>  <r_epik_Ionization_Penalty> (1)
  0.0000

>  <r_epik_Ionization_Penalty_Charging> (1)
  0.0000

>  <r_epik_Ionization_Penalty_Neutral> (1)
  0.0000

>  <r_epik_State_Penalty> (1)
  0.0000

>  <r_epik_Charging_Adjusted_Penalty> (1)
0

>  <i_epik_Tot_Q> (1)
0

>  <i_epik_Tot_abs_Q> (1)
0

>  <s_lp_Force_Field> (1)
S-OPLS

>  <r_lp_Energy> (1)
-1.169663

>  <b_lp_Chiralities_Consistent> (1)
1

$$$$
