8777_Triethanolamine lauryl sulfate
                    3D
 Schrodinger Suite 2021-3.
 42 41  0  0  1  0            999 V2000
   -0.0542    6.5221    3.3536 C   0  0  0  0  0  0
   -0.4971    5.6302    2.1898 C   0  0  0  0  0  0
    0.0059    4.1867    2.3106 C   0  0  0  0  0  0
   -0.4183    3.2937    1.1394 C   0  0  0  0  0  0
    0.1038    1.8560    1.2415 C   0  0  0  0  0  0
   -0.2797    0.9917    0.0333 C   0  0  0  0  0  0
    0.2066   -0.4645    0.1063 C   0  0  0  0  0  0
    1.7312   -0.6167    0.2009 C   0  0  0  0  0  0
    2.2248   -2.0520   -0.0151 C   0  0  0  0  0  0
    3.7392   -2.1894    0.1677 C   0  0  0  0  0  0
    4.2802   -3.5615   -0.2387 C   0  0  0  0  0  0
    5.7985   -3.6757   -0.0504 C   0  0  0  0  0  0
    6.5318   -2.5885   -0.6025 O   0  0  0  0  0  0
    6.5520   -2.4923   -2.3171 S   0  0  2  0  0  0
    6.7213   -3.8994   -2.7539 O   0  0  0  0  0  0
    5.2358   -1.9020   -2.6701 O   0  0  0  0  0  0
    7.7101   -1.6057   -2.5247 O   0  5  0  0  0  0
   -0.4247    7.5471    3.2424 H   0  0  0  0  0  0
    1.0391    6.5677    3.4192 H   0  0  0  0  0  0
   -0.4243    6.1349    4.3102 H   0  0  0  0  0  0
   -1.5941    5.6274    2.1243 H   0  0  0  0  0  0
   -0.1387    6.0577    1.2433 H   0  0  0  0  0  0
    1.1028    4.1911    2.3837 H   0  0  0  0  0  0
   -0.3574    3.7525    3.2536 H   0  0  0  0  0  0
   -1.5161    3.2822    1.0681 H   0  0  0  0  0  0
   -0.0601    3.7394    0.2001 H   0  0  0  0  0  0
    1.1957    1.8805    1.3440 H   0  0  0  0  0  0
   -0.2781    1.3900    2.1621 H   0  0  0  0  0  0
   -1.3733    1.0063   -0.0821 H   0  0  0  0  0  0
    0.1285    1.4561   -0.8760 H   0  0  0  0  0  0
   -0.2653   -0.9674    0.9636 H   0  0  0  0  0  0
   -0.1484   -0.9951   -0.7878 H   0  0  0  0  0  0
    2.2097    0.0332   -0.5451 H   0  0  0  0  0  0
    2.0799   -0.2605    1.1800 H   0  0  0  0  0  0
    1.6944   -2.7328    0.6698 H   0  0  0  0  0  0
    1.9560   -2.3700   -1.0322 H   0  0  0  0  0  0
    4.2518   -1.4483   -0.4523 H   0  0  0  0  0  0
    4.0023   -1.9751    1.2155 H   0  0  0  0  0  0
    3.7972   -4.3632    0.3431 H   0  0  0  0  0  0
    4.0455   -3.7312   -1.2942 H   0  0  0  0  0  0
    6.0391   -3.6593    1.0227 H   0  0  0  0  0  0
    6.1563   -4.6253   -0.4704 H   0  0  0  0  0  0
  1  2  1  0  0  0
  1 18  1  0  0  0
  1 19  1  0  0  0
  1 20  1  0  0  0
  2  3  1  0  0  0
  2 21  1  0  0  0
  2 22  1  0  0  0
  3  4  1  0  0  0
  3 23  1  0  0  0
  3 24  1  0  0  0
  4  5  1  0  0  0
  4 25  1  0  0  0
  4 26  1  0  0  0
  5  6  1  0  0  0
  5 27  1  0  0  0
  5 28  1  0  0  0
  6  7  1  0  0  0
  6 29  1  0  0  0
  6 30  1  0  0  0
  7  8  1  0  0  0
  7 31  1  0  0  0
  7 32  1  0  0  0
  8  9  1  0  0  0
  8 33  1  0  0  0
  8 34  1  0  0  0
  9 10  1  0  0  0
  9 35  1  0  0  0
  9 36  1  0  0  0
 10 11  1  0  0  0
 10 37  1  0  0  0
 10 38  1  0  0  0
 11 12  1  0  0  0
 11 39  1  0  0  0
 11 40  1  0  0  0
 12 13  1  0  0  0
 12 41  1  0  0  0
 12 42  1  0  0  0
 13 14  1  0  0  0
 14 15  2  0  0  0
 14 16  2  0  0  0
 14 17  1  0  0  0
M  END
>  <i_m_Spin_multiplicity> (1)
1

>  <s_j_Task> (1)
Single Point

>  <s_j_QM_Method> (1)
DFT(b3lyp-d3)

>  <s_j_QM_Basis> (1)
cc-pvtz(-f)

>  <i_j_Number_of_canonical_orbitals> (1)
617

>  <i_j_Geometry_convergence_category> (1)
0

>  <r_j_Gas_Phase_Energy> (1)
-1171.82613291693

>  <r_j_Final_Energy> (1)
-1171.82613291693

>  <r_j_HOMO> (1)
-0.0892138296148326

>  <r_j_LUMO> (1)
0.0990387479720761

>  <r_j_Polarizability> (1)
182.495373222872

>  <r_j_QM_Dipole_(debye)> (1)
19.4562955129259

>  <r_j_QM_Dipole_X_(debye)> (1)
-14.4607691242455

>  <r_j_QM_Dipole_Y_(debye)> (1)
8.76322967343019

>  <r_j_QM_Dipole_Z_(debye)> (1)
9.62493621341368

>  <r_j_Lowest_Frequency_(cm-1)> (1)
30.7144435451792

>  <r_j_Highest_Frequency_(cm-1)> (1)
3054.70405424543

>  <r_j_2nd_Lowest_Frequency_(cm-1)> (1)
48.5660854673905

>  <i_j_Num_Negative_Frequencies> (1)
0

>  <r_j_Zero_Point_Energy_(kcal/mol)> (1)
230.943400675626

>  <r_j_Entropy_(cal/mol/K)_298.15K_1.00E+00atm> (1)
139.897206241456

>  <r_j_Enthalpy_(kcal/mol)_298.15K_1.00E+00atm> (1)
12.5326844119237

>  <r_j_Free_Energy_(kcal/mol)_298.15K_1.00E+00atm> (1)
-29.1776676289665

>  <r_j_Internal_Energy_(kcal/mol)_298.15K_1.00E+00atm> (1)
11.9401988230964

>  <r_j_Heat_Capacity_(cal/mol/K)_298.15K_1.00E+00atm> (1)
72.5923712136458

>  <r_j_ln(Q)_298.15K_1.00E+00atm> (1)
49.2462064549431

>  <r_j_Total_Internal_Energy_(au)_298.15K_1.00E+00atm> (1)
-1171.43907326109

>  <r_j_Total_Enthalpy_(au)_298.15K_1.00E+00atm> (1)
-1171.43812907519

>  <r_j_Total_Free_Energy_(au)_298.15K_1.00E+00atm> (1)
-1171.5045987526

>  <r_lp_tautomer_probability> (1)
1

>  <r_epik_Ionization_Penalty> (1)
  0.0000

>  <r_epik_Ionization_Penalty_Charging> (1)
  0.0000

>  <r_epik_Ionization_Penalty_Neutral> (1)
  0.0000

>  <r_epik_State_Penalty> (1)
  0.0000

>  <r_epik_Charging_Adjusted_Penalty> (1)
1.63762416486134e-10

>  <i_epik_Tot_Q> (1)
-1

>  <i_epik_Tot_abs_Q> (1)
1

>  <s_lp_Force_Field> (1)
S-OPLS

>  <r_lp_Energy> (1)
13.008834

>  <b_lp_Chiralities_Consistent> (1)
1

$$$$
