87821_1-Octacosene
                    3D
 Schrodinger Suite 2021-3.
 84 83  0  0  1  0            999 V2000
   -6.3452   12.1713   -5.6771 C   0  0  0  0  0  0
   -6.1098   11.4906   -4.3254 C   0  0  0  0  0  0
   -5.3547   10.1610   -4.4436 C   0  0  0  0  0  0
   -5.1231    9.4734   -3.0933 C   0  0  0  0  0  0
   -4.3756    8.1391   -3.2009 C   0  0  0  0  0  0
   -4.1693    7.4526   -1.8457 C   0  0  0  0  0  0
   -3.4398    6.1075   -1.9398 C   0  0  0  0  0  0
   -3.2729    5.4156   -0.5818 C   0  0  0  0  0  0
   -2.5746    4.0532   -0.6664 C   0  0  0  0  0  0
   -2.4565    3.3543    0.6952 C   0  0  0  0  0  0
   -1.8704    1.9355    0.6352 C   0  0  0  0  0  0
   -0.3906    1.8673    0.2336 C   0  0  0  0  0  0
    0.1406    0.4278    0.1904 C   0  0  0  0  0  0
    1.6510    0.3056   -0.0599 C   0  0  0  0  0  0
    2.1283    0.8685   -1.4057 C   0  0  0  0  0  0
    3.6089    0.5775   -1.6793 C   0  0  0  0  0  0
    4.1328    1.2042   -2.9768 C   0  0  0  0  0  0
    5.6011    0.8556   -3.2567 C   0  0  0  0  0  0
    6.1799    1.4825   -4.5350 C   0  0  0  0  0  0
    6.2875    3.0127   -4.4894 C   0  0  0  0  0  0
    7.0152    3.6139   -5.6979 C   0  0  0  0  0  0
    7.1291    5.1410   -5.6258 C   0  0  0  0  0  0
    7.9147    5.7630   -6.7861 C   0  0  0  0  0  0
    8.0353    7.2873   -6.6739 C   0  0  0  0  0  0
    8.8691    7.9265   -7.7896 C   0  0  0  0  0  0
    8.9919    9.4546   -7.6380 C   0  0  0  0  0  0
    9.8049   10.0894   -8.7316 C   0  0  0  0  0  0
   10.9390   10.7676   -8.5551 C   0  0  0  0  0  0
   -6.8857   13.1169   -5.5635 H   0  0  0  0  0  0
   -6.9322   11.5297   -6.3445 H   0  0  0  0  0  0
   -5.3958   12.3881   -6.1802 H   0  0  0  0  0  0
   -5.5491   12.1667   -3.6654 H   0  0  0  0  0  0
   -7.0742   11.3145   -3.8295 H   0  0  0  0  0  0
   -5.9135    9.4842   -5.1061 H   0  0  0  0  0  0
   -4.3872   10.3349   -4.9363 H   0  0  0  0  0  0
   -4.5636   10.1506   -2.4320 H   0  0  0  0  0  0
   -6.0926    9.3057   -2.6022 H   0  0  0  0  0  0
   -4.9303    7.4645   -3.8689 H   0  0  0  0  0  0
   -3.3999    8.3042   -3.6801 H   0  0  0  0  0  0
   -3.6097    8.1243   -1.1789 H   0  0  0  0  0  0
   -5.1473    7.2995   -1.3669 H   0  0  0  0  0  0
   -3.9918    5.4424   -2.6196 H   0  0  0  0  0  0
   -2.4523    6.2575   -2.3992 H   0  0  0  0  0  0
   -2.7093    6.0730    0.0959 H   0  0  0  0  0  0
   -4.2626    5.2854   -0.1205 H   0  0  0  0  0  0
   -3.1317    3.4030   -1.3567 H   0  0  0  0  0  0
   -1.5794    4.1857   -1.1111 H   0  0  0  0  0  0
   -1.8481    3.9729    1.3708 H   0  0  0  0  0  0
   -3.4555    3.3045    1.1495 H   0  0  0  0  0  0
   -1.9882    1.4593    1.6182 H   0  0  0  0  0  0
   -2.4635    1.3304   -0.0659 H   0  0  0  0  0  0
   -0.2497    2.3400   -0.7456 H   0  0  0  0  0  0
    0.2053    2.4562    0.9467 H   0  0  0  0  0  0
   -0.0996   -0.0670    1.1417 H   0  0  0  0  0  0
   -0.4019   -0.1309   -0.5860 H   0  0  0  0  0  0
    2.1951    0.8096    0.7519 H   0  0  0  0  0  0
    1.9333   -0.7545    0.0002 H   0  0  0  0  0  0
    1.5181    0.4446   -2.2166 H   0  0  0  0  0  0
    1.9628    1.9535   -1.4363 H   0  0  0  0  0  0
    4.2119    0.9438   -0.8357 H   0  0  0  0  0  0
    3.7640   -0.5106   -1.7095 H   0  0  0  0  0  0
    3.5144    0.8710   -3.8231 H   0  0  0  0  0  0
    4.0085    2.2934   -2.9198 H   0  0  0  0  0  0
    6.2146    1.1654   -2.3981 H   0  0  0  0  0  0
    5.6972   -0.2370   -3.3175 H   0  0  0  0  0  0
    7.1804    1.0645   -4.7114 H   0  0  0  0  0  0
    5.5699    1.1841   -5.3998 H   0  0  0  0  0  0
    5.2865    3.4577   -4.4174 H   0  0  0  0  0  0
    6.8160    3.3068   -3.5706 H   0  0  0  0  0  0
    8.0218    3.1772   -5.7694 H   0  0  0  0  0  0
    6.4941    3.3268   -6.6224 H   0  0  0  0  0  0
    6.1215    5.5797   -5.5910 H   0  0  0  0  0  0
    7.6112    5.4201   -4.6776 H   0  0  0  0  0  0
    8.9204    5.3204   -6.8217 H   0  0  0  0  0  0
    7.4341    5.5011   -7.7395 H   0  0  0  0  0  0
    7.0300    7.7327   -6.6692 H   0  0  0  0  0  0
    8.4820    7.5418   -5.7019 H   0  0  0  0  0  0
    9.8749    7.4861   -7.7987 H   0  0  0  0  0  0
    8.4231    7.6900   -8.7660 H   0  0  0  0  0  0
    7.9801    9.8873   -7.6356 H   0  0  0  0  0  0
    9.4341    9.6916   -6.6617 H   0  0  0  0  0  0
    9.4208    9.9544   -9.7443 H   0  0  0  0  0  0
   11.3606   10.9229   -7.5645 H   0  0  0  0  0  0
   11.4875   11.1944   -9.3897 H   0  0  0  0  0  0
  1  2  1  0  0  0
  1 29  1  0  0  0
  1 30  1  0  0  0
  1 31  1  0  0  0
  2  3  1  0  0  0
  2 32  1  0  0  0
  2 33  1  0  0  0
  3  4  1  0  0  0
  3 34  1  0  0  0
  3 35  1  0  0  0
  4  5  1  0  0  0
  4 36  1  0  0  0
  4 37  1  0  0  0
  5  6  1  0  0  0
  5 38  1  0  0  0
  5 39  1  0  0  0
  6  7  1  0  0  0
  6 40  1  0  0  0
  6 41  1  0  0  0
  7  8  1  0  0  0
  7 42  1  0  0  0
  7 43  1  0  0  0
  8  9  1  0  0  0
  8 44  1  0  0  0
  8 45  1  0  0  0
  9 10  1  0  0  0
  9 46  1  0  0  0
  9 47  1  0  0  0
 10 11  1  0  0  0
 10 48  1  0  0  0
 10 49  1  0  0  0
 11 12  1  0  0  0
 11 50  1  0  0  0
 11 51  1  0  0  0
 12 13  1  0  0  0
 12 52  1  0  0  0
 12 53  1  0  0  0
 13 14  1  0  0  0
 13 54  1  0  0  0
 13 55  1  0  0  0
 14 15  1  0  0  0
 14 56  1  0  0  0
 14 57  1  0  0  0
 15 16  1  0  0  0
 15 58  1  0  0  0
 15 59  1  0  0  0
 16 17  1  0  0  0
 16 60  1  0  0  0
 16 61  1  0  0  0
 17 18  1  0  0  0
 17 62  1  0  0  0
 17 63  1  0  0  0
 18 19  1  0  0  0
 18 64  1  0  0  0
 18 65  1  0  0  0
 19 20  1  0  0  0
 19 66  1  0  0  0
 19 67  1  0  0  0
 20 21  1  0  0  0
 20 68  1  0  0  0
 20 69  1  0  0  0
 21 22  1  0  0  0
 21 70  1  0  0  0
 21 71  1  0  0  0
 22 23  1  0  0  0
 22 72  1  0  0  0
 22 73  1  0  0  0
 23 24  1  0  0  0
 23 74  1  0  0  0
 23 75  1  0  0  0
 24 25  1  0  0  0
 24 76  1  0  0  0
 24 77  1  0  0  0
 25 26  1  0  0  0
 25 78  1  0  0  0
 25 79  1  0  0  0
 26 27  1  0  0  0
 26 80  1  0  0  0
 26 81  1  0  0  0
 27 28  2  0  0  0
 27 82  1  0  0  0
 28 83  1  0  0  0
 28 84  1  0  0  0
M  END
>  <i_m_Spin_multiplicity> (1)
1

>  <s_j_Task> (1)
Single Point

>  <s_j_QM_Method> (1)
DFT(b3lyp-d3)

>  <s_j_QM_Basis> (1)
cc-pvtz(-f)

>  <i_j_Number_of_canonical_orbitals> (1)
1139

>  <i_j_Geometry_convergence_category> (1)
4

>  <r_j_Gas_Phase_Energy> (1)
-1101.18894241648

>  <r_j_Final_Energy> (1)
-1101.18894241648

>  <r_j_HOMO> (1)
-0.157851385611513

>  <r_j_LUMO> (1)
0.0467594615750272

>  <r_j_Polarizability> (1)
348.084481698555

>  <r_j_QM_Dipole_(debye)> (1)
0.531001806891492

>  <r_j_QM_Dipole_X_(debye)> (1)
-0.339357999106736

>  <r_j_QM_Dipole_Y_(debye)> (1)
-0.361673280287992

>  <r_j_QM_Dipole_Z_(debye)> (1)
0.1897142738173

>  <r_j_Lowest_Frequency_(cm-1)> (1)
13.749332814463

>  <r_j_Highest_Frequency_(cm-1)> (1)
3167.37377709563

>  <r_j_2nd_Lowest_Frequency_(cm-1)> (1)
24.3294483915499

>  <i_j_Num_Negative_Frequencies> (1)
0

>  <r_j_Zero_Point_Energy_(kcal/mol)> (1)
496.912748346994

>  <r_j_Entropy_(cal/mol/K)_298.15K_1.00E+00atm> (1)
205.506318705252

>  <r_j_Enthalpy_(kcal/mol)_298.15K_1.00E+00atm> (1)
21.9598819567248

>  <r_j_Free_Energy_(kcal/mol)_298.15K_1.00E+00atm> (1)
-39.311826965246

>  <r_j_Internal_Energy_(kcal/mol)_298.15K_1.00E+00atm> (1)
21.3673963678976

>  <r_j_Heat_Capacity_(cal/mol/K)_298.15K_1.00E+00atm> (1)
131.117860157339

>  <r_j_ln(Q)_298.15K_1.00E+00atm> (1)
66.3506888717026

>  <r_j_Total_Internal_Energy_(au)_298.15K_1.00E+00atm> (1)
-1100.36301042742

>  <r_j_Total_Enthalpy_(au)_298.15K_1.00E+00atm> (1)
-1100.36206624153

>  <r_j_Total_Free_Energy_(au)_298.15K_1.00E+00atm> (1)
-1100.45970892558

>  <r_lp_tautomer_probability> (1)
1

>  <r_epik_Ionization_Penalty> (1)
  0.0000

>  <r_epik_Ionization_Penalty_Charging> (1)
  0.0000

>  <r_epik_Ionization_Penalty_Neutral> (1)
  0.0000

>  <r_epik_State_Penalty> (1)
  0.0000

>  <r_epik_Charging_Adjusted_Penalty> (1)
0

>  <i_epik_Tot_Q> (1)
0

>  <i_epik_Tot_abs_Q> (1)
0

>  <s_lp_Force_Field> (1)
S-OPLS

>  <r_lp_Energy> (1)
12.2331

>  <b_lp_Chiralities_Consistent> (1)
1

$$$$
