878_Methyl mercaptan
                    3D
 Schrodinger Suite 2021-3.
  6  5  0  0  1  0            999 V2000
   -0.0350   -0.0124    0.0000 C   0  0  0  0  0  0
    1.8027   -0.0172    0.0000 S   0  0  0  0  0  0
   -0.3383    1.0367   -0.0001 H   0  0  0  0  0  0
   -0.4344   -0.4923   -0.8955 H   0  0  0  0  0  0
   -0.4345   -0.4921    0.8954 H   0  0  0  0  0  0
    1.9678   -1.3550   -0.0003 H   0  0  0  0  0  0
  1  2  1  0  0  0
  1  3  1  0  0  0
  1  4  1  0  0  0
  1  5  1  0  0  0
  2  6  1  0  0  0
M  END
>  <i_m_Spin_multiplicity> (1)
1

>  <s_j_Task> (1)
Single Point

>  <s_j_QM_Method> (1)
DFT(b3lyp-d3)

>  <s_j_QM_Basis> (1)
cc-pvtz(-f)

>  <i_j_Number_of_canonical_orbitals> (1)
86

>  <i_j_Geometry_convergence_category> (1)
3

>  <r_j_Gas_Phase_Energy> (1)
-438.754226377243

>  <r_j_Final_Energy> (1)
-438.754226377243

>  <r_j_HOMO> (1)
-0.241180346254453

>  <r_j_LUMO> (1)
0.00434590929141175

>  <r_j_Polarizability> (1)
31.6984037845445

>  <r_j_QM_Dipole_(debye)> (1)
1.5363173358701

>  <r_j_QM_Dipole_X_(debye)> (1)
-1.36177514953426

>  <r_j_QM_Dipole_Y_(debye)> (1)
-0.711223850425898

>  <r_j_QM_Dipole_Z_(debye)> (1)
-0.000182184798779845

>  <r_j_Lowest_Frequency_(cm-1)> (1)
278.250655109745

>  <r_j_Highest_Frequency_(cm-1)> (1)
3092.22337347247

>  <r_j_2nd_Lowest_Frequency_(cm-1)> (1)
685.700740952796

>  <i_j_Num_Negative_Frequencies> (1)
0

>  <r_j_Zero_Point_Energy_(kcal/mol)> (1)
28.6720898104004

>  <r_j_Entropy_(cal/mol/K)_298.15K_1.00E+00atm> (1)
60.3552328636471

>  <r_j_Enthalpy_(kcal/mol)_298.15K_1.00E+00atm> (1)
2.82496104970902

>  <r_j_Free_Energy_(kcal/mol)_298.15K_1.00E+00atm> (1)
-15.1699516285874

>  <r_j_Internal_Energy_(kcal/mol)_298.15K_1.00E+00atm> (1)
2.23247546088174

>  <r_j_Heat_Capacity_(cal/mol/K)_298.15K_1.00E+00atm> (1)
10.1138981066574

>  <r_j_ln(Q)_298.15K_1.00E+00atm> (1)
25.6039166431267

>  <r_j_Total_Internal_Energy_(au)_298.15K_1.00E+00atm> (1)
-438.704976817278

>  <r_j_Total_Enthalpy_(au)_298.15K_1.00E+00atm> (1)
-438.704032631386

>  <r_j_Total_Free_Energy_(au)_298.15K_1.00E+00atm> (1)
-438.732709350286

>  <r_epik_Ionization_Penalty> (1)
  0.0012

>  <r_epik_Ionization_Penalty_Charging> (1)
  0.0000

>  <r_epik_Ionization_Penalty_Neutral> (1)
  0.0012

>  <r_epik_State_Penalty> (1)
  0.0008

>  <r_epik_Charging_Adjusted_Penalty> (1)
0.000778531

>  <i_epik_Tot_Q> (1)
0

>  <i_epik_Tot_abs_Q> (1)
0

>  <s_lp_Force_Field> (1)
S-OPLS

>  <r_lp_Energy> (1)
0.335357

>  <b_lp_Chiralities_Consistent> (1)
1

$$$$
