8864_1,3-diethylbenzene
                    3D
 Schrodinger Suite 2021-3.
 24 24  0  0  1  0            999 V2000
   -0.5854    1.4251   -0.0717 C   0  0  0  0  0  0
   -0.0281   -0.0079   -0.0127 C   0  0  0  0  0  0
    1.4855   -0.0329   -0.0143 C   0  0  0  0  0  0
    2.2054   -0.0522    1.1855 C   0  0  0  0  0  0
    3.6047   -0.0328    1.2088 C   0  0  0  0  0  0
    4.2914    0.0114   -0.0104 C   0  0  0  0  0  0
    3.5916    0.0335   -1.2162 C   0  0  0  0  0  0
    2.1976    0.0114   -1.2187 C   0  0  0  0  0  0
    4.3604   -0.0079    2.5204 C   0  0  0  0  0  0
    4.6890    1.4250    2.9748 C   0  0  0  0  0  0
   -1.6807    1.4255   -0.0738 H   0  0  0  0  0  0
   -0.2417    1.9376   -0.9763 H   0  0  0  0  0  0
   -0.2441    2.0097    0.7889 H   0  0  0  0  0  0
   -0.4052   -0.5086    0.8869 H   0  0  0  0  0  0
   -0.4064   -0.5788   -0.8695 H   0  0  0  0  0  0
    1.6615   -0.0907    2.1279 H   0  0  0  0  0  0
    5.3789    0.0218   -0.0130 H   0  0  0  0  0  0
    4.1347    0.0599   -2.1571 H   0  0  0  0  0  0
    1.6557    0.0217   -2.1616 H   0  0  0  0  0  0
    3.7705   -0.5098    3.2965 H   0  0  0  0  0  0
    5.2921   -0.5777    2.4190 H   0  0  0  0  0  0
    5.2388    1.4248    3.9222 H   0  0  0  0  0  0
    3.7727    2.0088    3.1105 H   0  0  0  0  0  0
    5.3000    1.9388    2.2253 H   0  0  0  0  0  0
  1  2  1  0  0  0
  1 11  1  0  0  0
  1 12  1  0  0  0
  1 13  1  0  0  0
  2  3  1  0  0  0
  2 14  1  0  0  0
  2 15  1  0  0  0
  3  8  1  0  0  0
  3  4  2  0  0  0
  4  5  1  0  0  0
  4 16  1  0  0  0
  5  6  2  0  0  0
  5  9  1  0  0  0
  6  7  1  0  0  0
  6 17  1  0  0  0
  7  8  2  0  0  0
  7 18  1  0  0  0
  8 19  1  0  0  0
  9 10  1  0  0  0
  9 20  1  0  0  0
  9 21  1  0  0  0
 10 22  1  0  0  0
 10 23  1  0  0  0
 10 24  1  0  0  0
M  END
>  <i_m_Spin_multiplicity> (1)
1

>  <s_j_Task> (1)
Single Point

>  <s_j_QM_Method> (1)
DFT(b3lyp-d3)

>  <s_j_QM_Basis> (1)
cc-pvtz(-f)

>  <i_j_Number_of_canonical_orbitals> (1)
348

>  <i_j_Geometry_convergence_category> (1)
3

>  <r_j_Gas_Phase_Energy> (1)
-389.654226777937

>  <r_j_Final_Energy> (1)
-389.654226777937

>  <r_j_HOMO> (1)
-0.239654836450161

>  <r_j_LUMO> (1)
-0.00975225662367789

>  <r_j_Polarizability> (1)
115.831436439109

>  <r_j_QM_Dipole_(debye)> (1)
0.311371579728708

>  <r_j_QM_Dipole_X_(debye)> (1)
-0.150844163485585

>  <r_j_QM_Dipole_Y_(debye)> (1)
0.0763652143232486

>  <r_j_QM_Dipole_Z_(debye)> (1)
0.261470176208396

>  <r_j_Lowest_Frequency_(cm-1)> (1)
70.3013896033031

>  <r_j_Highest_Frequency_(cm-1)> (1)
3135.15164210219

>  <r_j_2nd_Lowest_Frequency_(cm-1)> (1)
95.5699921036788

>  <i_j_Num_Negative_Frequencies> (1)
0

>  <r_j_Zero_Point_Energy_(kcal/mol)> (1)
133.266983062472

>  <r_j_Entropy_(cal/mol/K)_298.15K_1.00E+00atm> (1)
95.3844924712448

>  <r_j_Enthalpy_(kcal/mol)_298.15K_1.00E+00atm> (1)
6.68130122129554

>  <r_j_Free_Energy_(kcal/mol)_298.15K_1.00E+00atm> (1)
-21.7575852090061

>  <r_j_Internal_Energy_(kcal/mol)_298.15K_1.00E+00atm> (1)
6.08881563246826

>  <r_j_Heat_Capacity_(cal/mol/K)_298.15K_1.00E+00atm> (1)
37.9643928646451

>  <r_j_ln(Q)_298.15K_1.00E+00atm> (1)
36.7225559900479

>  <r_j_Total_Internal_Energy_(au)_298.15K_1.00E+00atm> (1)
-389.432149175355

>  <r_j_Total_Enthalpy_(au)_298.15K_1.00E+00atm> (1)
-389.431204989463

>  <r_j_Total_Free_Energy_(au)_298.15K_1.00E+00atm> (1)
-389.476525240057

>  <r_lp_tautomer_probability> (1)
1

>  <r_epik_Ionization_Penalty> (1)
  0.0000

>  <r_epik_Ionization_Penalty_Charging> (1)
  0.0000

>  <r_epik_Ionization_Penalty_Neutral> (1)
  0.0000

>  <r_epik_State_Penalty> (1)
  0.0000

>  <r_epik_Charging_Adjusted_Penalty> (1)
0

>  <i_epik_Tot_Q> (1)
0

>  <i_epik_Tot_abs_Q> (1)
0

>  <s_lp_Force_Field> (1)
S-OPLS

>  <r_lp_Energy> (1)
10.149

>  <b_lp_Chiralities_Consistent> (1)
1

$$$$
