8882_Cyclopentene
                    3D
 Schrodinger Suite 2021-3.
 13 13  0  0  1  0            999 V2000
   -5.7322   -5.3728    5.2625 C   0  0  0  0  0  0
   -7.2727   -5.3737    5.0768 C   0  0  0  0  0  0
   -7.6399   -3.9244    5.3003 C   0  0  0  0  0  0
   -6.5693   -3.1282    5.2785 C   0  0  0  0  0  0
   -5.2930   -3.9018    5.0364 C   0  0  0  0  0  0
   -5.2224   -6.0765    4.5988 H   0  0  0  0  0  0
   -5.4951   -5.6634    6.2916 H   0  0  0  0  0  0
   -7.5618   -5.6900    4.0633 H   0  0  0  0  0  0
   -7.7790   -6.0584    5.7678 H   0  0  0  0  0  0
   -8.6662   -3.5896    5.4213 H   0  0  0  0  0  0
   -6.5915   -2.0467    5.3790 H   0  0  0  0  0  0
   -4.4738   -3.6008    5.7004 H   0  0  0  0  0  0
   -4.9336   -3.7358    4.0097 H   0  0  0  0  0  0
  1  5  1  0  0  0
  1  2  1  0  0  0
  1  6  1  0  0  0
  1  7  1  0  0  0
  2  3  1  0  0  0
  2  8  1  0  0  0
  2  9  1  0  0  0
  3  4  2  0  0  0
  3 10  1  0  0  0
  4  5  1  0  0  0
  4 11  1  0  0  0
  5 12  1  0  0  0
  5 13  1  0  0  0
M  END
>  <i_m_Spin_multiplicity> (1)
1

>  <s_j_Task> (1)
Single Point

>  <s_j_QM_Method> (1)
DFT(b3lyp-d3)

>  <s_j_QM_Basis> (1)
cc-pvtz(-f)

>  <i_j_Number_of_canonical_orbitals> (1)
185

>  <i_j_Geometry_convergence_category> (1)
0

>  <r_j_Gas_Phase_Energy> (1)
-195.400099339294

>  <r_j_Final_Energy> (1)
-195.400099339294

>  <r_j_HOMO> (1)
-0.294800551149966

>  <r_j_LUMO> (1)
-0.0359080540511524

>  <r_j_Polarizability> (1)
55.5176134760834

>  <r_j_QM_Dipole_(debye)> (1)
0.192199131704363

>  <r_j_QM_Dipole_X_(debye)> (1)
0.10156630641386

>  <r_j_QM_Dipole_Y_(debye)> (1)
-0.141285756312223

>  <r_j_QM_Dipole_Z_(debye)> (1)
-0.081627977389128

>  <r_j_Lowest_Frequency_(cm-1)> (1)
200.919871519853

>  <r_j_Highest_Frequency_(cm-1)> (1)
3147.63002315394

>  <r_j_2nd_Lowest_Frequency_(cm-1)> (1)
416.051309775481

>  <i_j_Num_Negative_Frequencies> (1)
0

>  <r_j_Zero_Point_Energy_(kcal/mol)> (1)
72.8283019206497

>  <r_j_Entropy_(cal/mol/K)_298.15K_1.00E+00atm> (1)
68.6010812413548

>  <r_j_Enthalpy_(kcal/mol)_298.15K_1.00E+00atm> (1)
3.42069022316446

>  <r_j_Free_Energy_(kcal/mol)_298.15K_1.00E+00atm> (1)
-17.0327221489455

>  <r_j_Internal_Energy_(kcal/mol)_298.15K_1.00E+00atm> (1)
2.82820463433718

>  <r_j_Heat_Capacity_(cal/mol/K)_298.15K_1.00E+00atm> (1)
16.796976467233

>  <r_j_ln(Q)_298.15K_1.00E+00atm> (1)
28.7479096034367

>  <r_j_Total_Internal_Energy_(au)_298.15K_1.00E+00atm> (1)
-195.279533020901

>  <r_j_Total_Enthalpy_(au)_298.15K_1.00E+00atm> (1)
-195.278588835008

>  <r_j_Total_Free_Energy_(au)_298.15K_1.00E+00atm> (1)
-195.31118342258

>  <r_lp_tautomer_probability> (1)
1

>  <r_epik_Ionization_Penalty> (1)
  0.0000

>  <r_epik_Ionization_Penalty_Charging> (1)
  0.0000

>  <r_epik_Ionization_Penalty_Neutral> (1)
  0.0000

>  <r_epik_State_Penalty> (1)
  0.0000

>  <r_epik_Charging_Adjusted_Penalty> (1)
0

>  <i_epik_Tot_Q> (1)
0

>  <i_epik_Tot_abs_Q> (1)
0

>  <s_lp_Force_Field> (1)
S-OPLS

>  <r_lp_Energy> (1)
-2.17132

>  <b_lp_Chiralities_Consistent> (1)
1

$$$$
