8892_Hexanoic acid
                    3D
 Schrodinger Suite 2021-3.
 19 18  0  0  1  0            999 V2000
   -2.1123    1.4906   -0.0474 C   0  0  0  0  0  0
   -0.5806    1.4467   -0.0232 C   0  0  0  0  0  0
   -0.0098    0.0271    0.0886 C   0  0  0  0  0  0
    1.5223   -0.0232    0.0929 C   0  0  0  0  0  0
    2.1168   -1.4280    0.1883 C   0  0  0  0  0  0
    3.6767   -1.4781   -0.0609 C   0  0  0  0  0  0
    4.2671   -2.4446    0.4790 O   0  0  0  0  0  0
    4.1342   -0.5647   -0.7970 O   0  5  0  0  0  0
   -2.4956    2.5155   -0.1272 H   0  0  0  0  0  0
   -2.5325    1.0476    0.8641 H   0  0  0  0  0  0
   -2.5074    0.9202   -0.8972 H   0  0  0  0  0  0
   -0.1845    1.9207   -0.9320 H   0  0  0  0  0  0
   -0.2098    2.0516    0.8164 H   0  0  0  0  0  0
   -0.4041   -0.4464    1.0017 H   0  0  0  0  0  0
   -0.3915   -0.5789   -0.7481 H   0  0  0  0  0  0
    1.9297    0.4354   -0.8159 H   0  0  0  0  0  0
    1.9005    0.5898    0.9253 H   0  0  0  0  0  0
    1.8974   -1.8932    1.1585 H   0  0  0  0  0  0
    1.6452   -2.0717   -0.5730 H   0  0  0  0  0  0
  1  2  1  0  0  0
  1  9  1  0  0  0
  1 10  1  0  0  0
  1 11  1  0  0  0
  2  3  1  0  0  0
  2 12  1  0  0  0
  2 13  1  0  0  0
  3  4  1  0  0  0
  3 14  1  0  0  0
  3 15  1  0  0  0
  4  5  1  0  0  0
  4 16  1  0  0  0
  4 17  1  0  0  0
  5  6  1  0  0  0
  5 18  1  0  0  0
  5 19  1  0  0  0
  6  7  2  0  0  0
  6  8  1  0  0  0
M  END
>  <i_m_Spin_multiplicity> (1)
1

>  <s_j_Task> (1)
Single Point

>  <s_j_QM_Method> (1)
DFT(b3lyp-d3)

>  <s_j_QM_Basis> (1)
cc-pvtz(-f)

>  <i_j_Number_of_canonical_orbitals> (1)
282

>  <i_j_Geometry_convergence_category> (1)
3

>  <r_j_Gas_Phase_Energy> (1)
-385.924902569295

>  <r_j_Final_Energy> (1)
-385.924902569295

>  <r_j_HOMO> (1)
-0.0366900633885664

>  <r_j_LUMO> (1)
0.133580807581421

>  <r_j_Polarizability> (1)
84.7541749537418

>  <r_j_QM_Dipole_(debye)> (1)
11.3412704120349

>  <r_j_QM_Dipole_X_(debye)> (1)
-10.363900133902

>  <r_j_QM_Dipole_Y_(debye)> (1)
4.57626717846108

>  <r_j_QM_Dipole_Z_(debye)> (1)
0.521313039107691

>  <r_j_Lowest_Frequency_(cm-1)> (1)
77.1009193424335

>  <r_j_Highest_Frequency_(cm-1)> (1)
3027.31375425084

>  <r_j_2nd_Lowest_Frequency_(cm-1)> (1)
98.2973792088101

>  <i_j_Num_Negative_Frequencies> (1)
0

>  <r_j_Zero_Point_Energy_(kcal/mol)> (1)
101.391481324343

>  <r_j_Entropy_(cal/mol/K)_298.15K_1.00E+00atm> (1)
92.5463206425972

>  <r_j_Enthalpy_(kcal/mol)_298.15K_1.00E+00atm> (1)
6.22061785302174

>  <r_j_Free_Energy_(kcal/mol)_298.15K_1.00E+00atm> (1)
-21.3720676465686

>  <r_j_Internal_Energy_(kcal/mol)_298.15K_1.00E+00atm> (1)
5.62813226419446

>  <r_j_Heat_Capacity_(cal/mol/K)_298.15K_1.00E+00atm> (1)
31.9398734966634

>  <r_j_ln(Q)_298.15K_1.00E+00atm> (1)
36.0718776111855

>  <r_j_Total_Internal_Energy_(au)_298.15K_1.00E+00atm> (1)
-385.754355958121

>  <r_j_Total_Enthalpy_(au)_298.15K_1.00E+00atm> (1)
-385.753411772228

>  <r_j_Total_Free_Energy_(au)_298.15K_1.00E+00atm> (1)
-385.797383515794

>  <r_epik_Ionization_Penalty> (1)
  0.0048

>  <r_epik_Ionization_Penalty_Charging> (1)
  0.0048

>  <r_epik_Ionization_Penalty_Neutral> (1)
  0.0000

>  <r_epik_State_Penalty> (1)
  0.0035

>  <r_epik_Charging_Adjusted_Penalty> (1)
0.00828125188191372

>  <i_epik_Tot_Q> (1)
-1

>  <i_epik_Tot_abs_Q> (1)
1

>  <s_lp_Force_Field> (1)
S-OPLS

>  <r_lp_Energy> (1)
6.283047

>  <b_lp_Chiralities_Consistent> (1)
1

$$$$
