88939_3-Methyl-1-benzofuran
                    3D
 Schrodinger Suite 2021-3.
 18 19  0  0  1  0            999 V2000
    0.0130   -0.0082    0.0001 C   0  0  0  0  0  0
    1.5085    0.0277    0.0000 C   0  0  0  0  0  0
    2.3160    1.1191    0.0000 C   0  0  0  0  0  0
    3.6546    0.7965    0.0000 O   0  0  0  0  0  0
    3.7067   -0.5714    0.0000 C   0  0  0  0  0  0
    4.8587   -1.3474    0.0000 C   0  0  0  0  0  0
    4.6762   -2.7297    0.0001 C   0  0  0  0  0  0
    3.3891   -3.2979    0.0000 C   0  0  0  0  0  0
    2.2476   -2.5012   -0.0001 C   0  0  0  0  0  0
    2.4069   -1.1083    0.0000 C   0  0  0  0  0  0
   -0.4103    1.0002    0.0001 H   0  0  0  0  0  0
   -0.3703   -0.5349    0.8820 H   0  0  0  0  0  0
   -0.3704   -0.5349   -0.8818 H   0  0  0  0  0  0
    2.0966    2.1766    0.0000 H   0  0  0  0  0  0
    5.8433   -0.8931    0.0000 H   0  0  0  0  0  0
    5.5456   -3.3802    0.0002 H   0  0  0  0  0  0
    3.2884   -4.3792    0.0000 H   0  0  0  0  0  0
    1.2573   -2.9469   -0.0001 H   0  0  0  0  0  0
  1  2  1  0  0  0
  1 11  1  0  0  0
  1 12  1  0  0  0
  1 13  1  0  0  0
  2 10  1  0  0  0
  2  3  2  0  0  0
  3  4  1  0  0  0
  3 14  1  0  0  0
  4  5  1  0  0  0
  5 10  1  0  0  0
  5  6  2  0  0  0
  6  7  1  0  0  0
  6 15  1  0  0  0
  7  8  2  0  0  0
  7 16  1  0  0  0
  8  9  1  0  0  0
  8 17  1  0  0  0
  9 10  2  0  0  0
  9 18  1  0  0  0
M  END
>  <i_m_Spin_multiplicity> (1)
1

>  <s_j_Task> (1)
Single Point

>  <s_j_QM_Method> (1)
DFT(b3lyp-d3)

>  <s_j_QM_Basis> (1)
cc-pvtz(-f)

>  <i_j_Number_of_canonical_orbitals> (1)
296

>  <i_j_Geometry_convergence_category> (1)
3

>  <r_j_Gas_Phase_Energy> (1)
-423.137673899752

>  <r_j_Final_Energy> (1)
-423.137673899752

>  <r_j_HOMO> (1)
-0.229260169732054

>  <r_j_LUMO> (1)
-0.0349719060453472

>  <r_j_Polarizability> (1)
101.248393565248

>  <r_j_QM_Dipole_(debye)> (1)
1.10608752759821

>  <r_j_QM_Dipole_X_(debye)> (1)
-1.10608035260814

>  <r_j_QM_Dipole_Y_(debye)> (1)
0.00398272916662613

>  <r_j_QM_Dipole_Z_(debye)> (1)
0.000100752021900211

>  <r_j_Lowest_Frequency_(cm-1)> (1)
168.16620970485

>  <r_j_Highest_Frequency_(cm-1)> (1)
3217.03171054143

>  <r_j_2nd_Lowest_Frequency_(cm-1)> (1)
226.774044689681

>  <i_j_Num_Negative_Frequencies> (1)
0

>  <r_j_Zero_Point_Energy_(kcal/mol)> (1)
90.5284939285988

>  <r_j_Entropy_(cal/mol/K)_298.15K_1.00E+00atm> (1)
84.6772517601894

>  <r_j_Enthalpy_(kcal/mol)_298.15K_1.00E+00atm> (1)
5.26757941342924

>  <r_j_Free_Energy_(kcal/mol)_298.15K_1.00E+00atm> (1)
-19.9789431988712

>  <r_j_Internal_Energy_(kcal/mol)_298.15K_1.00E+00atm> (1)
4.67509382460196

>  <r_j_Heat_Capacity_(cal/mol/K)_298.15K_1.00E+00atm> (1)
30.4554093697383

>  <r_j_ln(Q)_298.15K_1.00E+00atm> (1)
33.7205555301627

>  <r_j_Total_Internal_Energy_(au)_298.15K_1.00E+00atm> (1)
-422.985957324458

>  <r_j_Total_Enthalpy_(au)_298.15K_1.00E+00atm> (1)
-422.985013138566

>  <r_j_Total_Free_Energy_(au)_298.15K_1.00E+00atm> (1)
-423.025246033556

>  <r_lp_tautomer_probability> (1)
1

>  <r_epik_Ionization_Penalty> (1)
  0.0000

>  <r_epik_Ionization_Penalty_Charging> (1)
  0.0000

>  <r_epik_Ionization_Penalty_Neutral> (1)
  0.0000

>  <r_epik_State_Penalty> (1)
  0.0000

>  <r_epik_Charging_Adjusted_Penalty> (1)
0

>  <i_epik_Tot_Q> (1)
0

>  <i_epik_Tot_abs_Q> (1)
0

>  <s_lp_Force_Field> (1)
S-OPLS

>  <r_lp_Energy> (1)
14.3937

>  <b_lp_Chiralities_Consistent> (1)
1

$$$$
