89180_4,6-Dimethyl-2-heptanone
                    3D
 Schrodinger Suite 2021-3.
 28 27  0  0  1  0            999 V2000
   -0.0065    2.2575    1.2899 C   0  0  0  0  0  0
   -0.5521    1.4420    0.1089 C   0  0  0  0  0  0
   -2.0822    1.3372    0.1861 C   0  0  0  0  0  0
    0.0664    0.0327    0.0385 C   0  0  0  0  0  0
    1.6028   -0.0434   -0.0609 C   0  0  0  0  0  0
    2.1474    0.7116   -1.2810 C   0  0  0  0  0  0
    2.0643   -1.5200   -0.1095 C   0  0  0  0  0  0
    1.6210   -2.3465    1.0902 C   0  0  0  0  0  0
    0.8867   -3.3090    0.9657 O   0  0  0  0  0  0
    2.1208   -1.9052    2.4568 C   0  0  0  0  0  0
   -0.1863    1.7336    2.2374 H   0  0  0  0  0  0
   -0.4985    3.2339    1.3529 H   0  0  0  0  0  0
    1.0701    2.4364    1.2058 H   0  0  0  0  0  0
   -0.3034    1.9769   -0.8181 H   0  0  0  0  0  0
   -2.3912    0.8217    1.1037 H   0  0  0  0  0  0
   -2.4875    0.7754   -0.6625 H   0  0  0  0  0  0
   -2.5482    2.3284    0.1879 H   0  0  0  0  0  0
   -0.2650   -0.5282    0.9243 H   0  0  0  0  0  0
   -0.3594   -0.4999   -0.8237 H   0  0  0  0  0  0
    2.0374    0.4131    0.8382 H   0  0  0  0  0  0
    1.7055    0.3227   -2.2062 H   0  0  0  0  0  0
    3.2345    0.6041   -1.3583 H   0  0  0  0  0  0
    1.9234    1.7810   -1.2271 H   0  0  0  0  0  0
    1.6711   -2.0089   -1.0069 H   0  0  0  0  0  0
    3.1616   -1.5485   -0.1610 H   0  0  0  0  0  0
    3.1995   -1.7157    2.4443 H   0  0  0  0  0  0
    1.8795   -2.6687    3.1975 H   0  0  0  0  0  0
    1.6334   -0.9654    2.7422 H   0  0  0  0  0  0
  1  2  1  0  0  0
  1 11  1  0  0  0
  1 12  1  0  0  0
  1 13  1  0  0  0
  2  3  1  0  0  0
  2  4  1  0  0  0
  2 14  1  0  0  0
  3 15  1  0  0  0
  3 16  1  0  0  0
  3 17  1  0  0  0
  4  5  1  0  0  0
  4 18  1  0  0  0
  4 19  1  0  0  0
  5  6  1  0  0  0
  5  7  1  0  0  0
  5 20  1  0  0  0
  6 21  1  0  0  0
  6 22  1  0  0  0
  6 23  1  0  0  0
  7  8  1  0  0  0
  7 24  1  0  0  0
  7 25  1  0  0  0
  8  9  2  0  0  0
  8 10  1  0  0  0
 10 26  1  0  0  0
 10 27  1  0  0  0
 10 28  1  0  0  0
M  END
>  <i_m_Spin_multiplicity> (1)
1

>  <s_j_Task> (1)
Single Point

>  <s_j_QM_Method> (1)
DFT(b3lyp-d3)

>  <s_j_QM_Basis> (1)
cc-pvtz(-f)

>  <i_j_Number_of_canonical_orbitals> (1)
390

>  <i_j_Geometry_convergence_category> (1)
1

>  <r_j_Gas_Phase_Energy> (1)
-429.21008964622

>  <r_j_Final_Energy> (1)
-429.21008964622

>  <r_j_HOMO> (1)
-0.264013063382102

>  <r_j_LUMO> (1)
-0.0373429295838012

>  <r_j_Polarizability> (1)
110.326976405897

>  <r_j_QM_Dipole_(debye)> (1)
3.02892024393507

>  <r_j_QM_Dipole_X_(debye)> (1)
1.49639076962518

>  <r_j_QM_Dipole_Y_(debye)> (1)
2.63124347851416

>  <r_j_QM_Dipole_Z_(debye)> (1)
0.108306350123022

>  <r_j_Lowest_Frequency_(cm-1)> (1)
77.247472632495

>  <r_j_Highest_Frequency_(cm-1)> (1)
3099.82036730702

>  <r_j_2nd_Lowest_Frequency_(cm-1)> (1)
81.5129505677389

>  <i_j_Num_Negative_Frequencies> (1)
0

>  <r_j_Zero_Point_Energy_(kcal/mol)> (1)
159.614437133305

>  <r_j_Entropy_(cal/mol/K)_298.15K_1.00E+00atm> (1)
104.917524142311

>  <r_j_Enthalpy_(kcal/mol)_298.15K_1.00E+00atm> (1)
8.11458325824104

>  <r_j_Free_Energy_(kcal/mol)_298.15K_1.00E+00atm> (1)
-23.166576564789

>  <r_j_Internal_Energy_(kcal/mol)_298.15K_1.00E+00atm> (1)
7.52209766941376

>  <r_j_Heat_Capacity_(cal/mol/K)_298.15K_1.00E+00atm> (1)
45.7416299805839

>  <r_j_ln(Q)_298.15K_1.00E+00atm> (1)
39.1006583141429

>  <r_j_Total_Internal_Energy_(au)_298.15K_1.00E+00atm> (1)
-428.943740622352

>  <r_j_Total_Enthalpy_(au)_298.15K_1.00E+00atm> (1)
-428.942796436459

>  <r_j_Total_Free_Energy_(au)_298.15K_1.00E+00atm> (1)
-428.992646138047

>  <r_lp_tautomer_probability> (1)
1

>  <r_epik_Ionization_Penalty> (1)
  0.0000

>  <r_epik_Ionization_Penalty_Charging> (1)
  0.0000

>  <r_epik_Ionization_Penalty_Neutral> (1)
  0.0000

>  <r_epik_State_Penalty> (1)
  0.0000

>  <r_epik_Charging_Adjusted_Penalty> (1)
0

>  <i_epik_Tot_Q> (1)
0

>  <i_epik_Tot_abs_Q> (1)
0

>  <s_lp_Force_Field> (1)
S-OPLS

>  <r_lp_Energy> (1)
2.61299

>  <b_lp_Chiralities_Consistent> (1)
1

$$$$
