89303_2,4,5-trimethylheptane
                    3D
 Schrodinger Suite 2021-3.
 32 31  0  0  1  0            999 V2000
   -2.1234   -0.7126    1.4508 C   0  0  0  0  0  0
   -0.6463   -0.9540    1.1201 C   0  0  0  0  0  0
   -0.0845   -0.0414    0.0054 C   0  0  0  0  0  0
   -0.6511   -0.4789   -1.3560 C   0  0  0  0  0  0
    1.4729   -0.0061    0.0397 C   0  0  0  0  0  0
    1.9729    0.7738    1.2685 C   0  0  0  0  0  0
    2.0781    0.5838   -1.2525 C   0  0  0  0  0  0
    3.6122    0.7369   -1.2938 C   0  0  0  0  0  0
    4.0405    1.3462   -2.6369 C   0  0  0  0  0  0
    4.3336   -0.5971   -1.0555 C   0  0  0  0  0  0
   -2.4615   -1.3768    2.2531 H   0  0  0  0  0  0
   -2.7743   -0.8857    0.5880 H   0  0  0  0  0  0
   -2.2837    0.3194    1.7835 H   0  0  0  0  0  0
   -0.0655   -0.8257    2.0397 H   0  0  0  0  0  0
   -0.4999   -2.0008    0.8178 H   0  0  0  0  0  0
   -0.4337    0.9858    0.1991 H   0  0  0  0  0  0
   -0.2366   -1.4497   -1.6551 H   0  0  0  0  0  0
   -0.4297    0.2395   -2.1490 H   0  0  0  0  0  0
   -1.7389   -0.5853   -1.3130 H   0  0  0  0  0  0
    1.8117   -1.0495    0.1279 H   0  0  0  0  0  0
    1.7671    1.8446    1.1477 H   0  0  0  0  0  0
    3.0507    0.6581    1.4130 H   0  0  0  0  0  0
    1.4889    0.4481    2.1927 H   0  0  0  0  0  0
    1.7906   -0.0412   -2.1067 H   0  0  0  0  0  0
    1.6249    1.5710   -1.4288 H   0  0  0  0  0  0
    3.9176    1.4362   -0.5040 H   0  0  0  0  0  0
    3.7755    0.6819   -3.4689 H   0  0  0  0  0  0
    5.1236    1.5072   -2.6726 H   0  0  0  0  0  0
    3.5508    2.3105   -2.8126 H   0  0  0  0  0  0
    4.0266   -1.3406   -1.8018 H   0  0  0  0  0  0
    4.1171   -1.0111   -0.0660 H   0  0  0  0  0  0
    5.4195   -0.4763   -1.1340 H   0  0  0  0  0  0
  1  2  1  0  0  0
  1 11  1  0  0  0
  1 12  1  0  0  0
  1 13  1  0  0  0
  2  3  1  0  0  0
  2 14  1  0  0  0
  2 15  1  0  0  0
  3  4  1  0  0  0
  3  5  1  0  0  0
  3 16  1  0  0  0
  4 17  1  0  0  0
  4 18  1  0  0  0
  4 19  1  0  0  0
  5  6  1  0  0  0
  5  7  1  0  0  0
  5 20  1  0  0  0
  6 21  1  0  0  0
  6 22  1  0  0  0
  6 23  1  0  0  0
  7  8  1  0  0  0
  7 24  1  0  0  0
  7 25  1  0  0  0
  8  9  1  0  0  0
  8 10  1  0  0  0
  8 26  1  0  0  0
  9 27  1  0  0  0
  9 28  1  0  0  0
  9 29  1  0  0  0
 10 30  1  0  0  0
 10 31  1  0  0  0
 10 32  1  0  0  0
M  END
>  <i_m_Spin_multiplicity> (1)
1

>  <s_j_Task> (1)
Single Point

>  <s_j_QM_Method> (1)
DFT(b3lyp-d3)

>  <s_j_QM_Basis> (1)
cc-pvtz(-f)

>  <i_j_Number_of_canonical_orbitals> (1)
425

>  <i_j_Geometry_convergence_category> (1)
1

>  <r_j_Gas_Phase_Energy> (1)
-394.49692746894

>  <r_j_Final_Energy> (1)
-394.49692746894

>  <r_j_HOMO> (1)
-0.293428521046374

>  <r_j_LUMO> (1)
0.0288541900030169

>  <r_j_Polarizability> (1)
122.556365200269

>  <r_j_QM_Dipole_(debye)> (1)
0.118928594603871

>  <r_j_QM_Dipole_X_(debye)> (1)
0.0363416476103739

>  <r_j_QM_Dipole_Y_(debye)> (1)
0.0248893890768717

>  <r_j_QM_Dipole_Z_(debye)> (1)
0.110470872064972

>  <r_j_Lowest_Frequency_(cm-1)> (1)
66.7704122488855

>  <r_j_Highest_Frequency_(cm-1)> (1)
3066.15965096443

>  <r_j_2nd_Lowest_Frequency_(cm-1)> (1)
102.312419322435

>  <i_j_Num_Negative_Frequencies> (1)
0

>  <r_j_Zero_Point_Energy_(kcal/mol)> (1)
189.47493547683

>  <r_j_Entropy_(cal/mol/K)_298.15K_1.00E+00atm> (1)
106.15480329936

>  <r_j_Enthalpy_(kcal/mol)_298.15K_1.00E+00atm> (1)
8.44534214128787

>  <r_j_Free_Energy_(kcal/mol)_298.15K_1.00E+00atm> (1)
-23.2047124624163

>  <r_j_Internal_Energy_(kcal/mol)_298.15K_1.00E+00atm> (1)
7.85285655246059

>  <r_j_Heat_Capacity_(cal/mol/K)_298.15K_1.00E+00atm> (1)
49.1133236616261

>  <r_j_ln(Q)_298.15K_1.00E+00atm> (1)
39.1650242638746

>  <r_j_Total_Internal_Energy_(au)_298.15K_1.00E+00atm> (1)
-394.18246561384

>  <r_j_Total_Enthalpy_(au)_298.15K_1.00E+00atm> (1)
-394.181521427947

>  <r_j_Total_Free_Energy_(au)_298.15K_1.00E+00atm> (1)
-394.231959000792

>  <r_lp_tautomer_probability> (1)
1

>  <r_epik_Ionization_Penalty> (1)
  0.0000

>  <r_epik_Ionization_Penalty_Charging> (1)
  0.0000

>  <r_epik_Ionization_Penalty_Neutral> (1)
  0.0000

>  <r_epik_State_Penalty> (1)
  0.0000

>  <r_epik_Charging_Adjusted_Penalty> (1)
0

>  <i_epik_Tot_Q> (1)
0

>  <i_epik_Tot_abs_Q> (1)
0

>  <s_lp_Force_Field> (1)
S-OPLS

>  <r_lp_Energy> (1)
9.19561

>  <b_lp_Chiralities_Consistent> (1)
1

$$$$
