9033_Aziridine
                    3D
 Schrodinger Suite 2021-3.
  9  9  0  0  1  0            999 V2000
    3.3812   -2.4255    0.0013 C   0  0  0  0  0  0
    4.5450   -1.5176   -0.0641 C   0  0  0  0  0  0
    3.1949   -0.9631    0.2993 N   0  3  1  0  0  0
    3.2479   -3.0678    0.8654 H   0  0  0  0  0  0
    2.8993   -2.7493   -0.9152 H   0  0  0  0  0  0
    5.2591   -1.4987    0.7524 H   0  0  0  0  0  0
    4.9106   -1.1802   -1.0282 H   0  0  0  0  0  0
    2.7056   -0.3851   -0.3832 H   0  0  0  0  0  0
    3.0281   -0.6798    1.2644 H   0  0  0  0  0  0
  1  3  1  0  0  0
  1  2  1  0  0  0
  1  4  1  0  0  0
  1  5  1  0  0  0
  2  3  1  0  0  0
  2  6  1  0  0  0
  2  7  1  0  0  0
  3  8  1  0  0  0
  3  9  1  0  0  0
M  END
>  <i_m_Spin_multiplicity> (1)
1

>  <s_j_Task> (1)
Single Point

>  <s_j_QM_Method> (1)
DFT(b3lyp-d3)

>  <s_j_QM_Basis> (1)
cc-pvtz(-f)

>  <i_j_Number_of_canonical_orbitals> (1)
123

>  <i_j_Geometry_convergence_category> (1)
0

>  <r_j_Gas_Phase_Energy> (1)
-134.333526279934

>  <r_j_Final_Energy> (1)
-134.333526279934

>  <r_j_HOMO> (1)
-0.606062639432171

>  <r_j_LUMO> (1)
-0.202151050162489

>  <r_j_Polarizability> (1)
26.5181972601691

>  <r_j_QM_Dipole_(debye)> (1)
1.52450574737378

>  <r_j_QM_Dipole_X_(debye)> (1)
-0.893839813394887

>  <r_j_QM_Dipole_Y_(debye)> (1)
1.17343868228078

>  <r_j_QM_Dipole_Z_(debye)> (1)
0.384980286109603

>  <r_j_Lowest_Frequency_(cm-1)> (1)
773.168747512118

>  <r_j_Highest_Frequency_(cm-1)> (1)
3527.50404971897

>  <r_j_2nd_Lowest_Frequency_(cm-1)> (1)
803.942889854263

>  <i_j_Num_Negative_Frequencies> (1)
0

>  <r_j_Zero_Point_Energy_(kcal/mol)> (1)
52.7473586970218

>  <r_j_Entropy_(cal/mol/K)_298.15K_1.00E+00atm> (1)
60.1758281458743

>  <r_j_Enthalpy_(kcal/mol)_298.15K_1.00E+00atm> (1)
2.66540087616728

>  <r_j_Free_Energy_(kcal/mol)_298.15K_1.00E+00atm> (1)
-15.2760222855251

>  <r_j_Internal_Energy_(kcal/mol)_298.15K_1.00E+00atm> (1)
2.07291528734001

>  <r_j_Heat_Capacity_(cal/mol/K)_298.15K_1.00E+00atm> (1)
10.5304481742154

>  <r_j_ln(Q)_298.15K_1.00E+00atm> (1)
25.78294320333

>  <r_j_Total_Internal_Energy_(au)_298.15K_1.00E+00atm> (1)
-134.246164611935

>  <r_j_Total_Enthalpy_(au)_298.15K_1.00E+00atm> (1)
-134.245220426043

>  <r_j_Total_Free_Energy_(au)_298.15K_1.00E+00atm> (1)
-134.273811903972

>  <r_epik_Ionization_Penalty> (1)
  0.0185

>  <r_epik_Ionization_Penalty_Charging> (1)
  0.0185

>  <r_epik_Ionization_Penalty_Neutral> (1)
  0.0000

>  <r_epik_State_Penalty> (1)
  0.0147

>  <r_epik_Charging_Adjusted_Penalty> (1)
0.0332038

>  <i_epik_Tot_Q> (1)
1

>  <i_epik_Tot_abs_Q> (1)
1

>  <s_lp_Force_Field> (1)
S-OPLS

>  <r_lp_Energy> (1)
10.1692

>  <b_lp_Chiralities_Consistent> (1)
1

$$$$
