90864_Methyltri(ethylmethylketoxime) silane
                    3D
 Schrodinger Suite 2021-3.
 47 46  0  0  1  0            999 V2000
   -0.8098    4.1586    0.9837 C   0  0  0  0  0  0
   -1.4584    3.0510    0.1345 C   0  0  0  0  0  0
   -0.8633    1.7016    0.4512 C   0  0  0  0  0  0
   -0.0998    1.2116   -0.4528 N   0  0  0  0  0  0
    0.4413   -0.0546   -0.0488 O   0  0  0  0  0  0
    2.0978   -0.1911   -0.2086 Si  0  0  0  0  0  0
    2.5202   -1.9877   -0.3579 C   0  0  0  0  0  0
    2.6594    0.7541   -1.4666 O   0  0  0  0  0  0
    2.1536    0.2499   -2.7135 N   0  0  0  0  0  0
    1.7926    1.2081   -3.4824 C   0  0  0  0  0  0
    1.8377    2.6597   -3.0919 C   0  0  0  0  0  0
    1.2703    0.8364   -4.8491 C   0  0  0  0  0  0
    1.2280   -0.6595   -5.1608 C   0  0  0  0  0  0
    2.8903    0.3904    1.1556 O   0  0  0  0  0  0
    2.3335    1.5922    1.6733 N   0  0  0  0  0  0
    3.0724    2.0870    2.5968 C   0  0  0  0  0  0
    4.3732    1.4792    3.0489 C   0  0  0  0  0  0
    2.5777    3.3670    3.2229 C   0  0  0  0  0  0
    3.4682    4.5708    2.8714 C   0  0  0  0  0  0
   -1.1163    1.0684    1.7908 C   0  0  0  0  0  0
   -1.2467    5.1346    0.7506 H   0  0  0  0  0  0
    0.2657    4.2024    0.7879 H   0  0  0  0  0  0
   -0.9498    3.9755    2.0546 H   0  0  0  0  0  0
   -2.5396    3.0232    0.3230 H   0  0  0  0  0  0
   -1.3126    3.2603   -0.9293 H   0  0  0  0  0  0
    3.5833   -2.1481   -0.1564 H   0  0  0  0  0  0
    2.3038   -2.3206   -1.3761 H   0  0  0  0  0  0
    1.9375   -2.5903    0.3445 H   0  0  0  0  0  0
    1.4802    3.2997   -3.9023 H   0  0  0  0  0  0
    2.8560    2.9519   -2.8192 H   0  0  0  0  0  0
    1.2151    2.7972   -2.2022 H   0  0  0  0  0  0
    0.2664    1.2754   -4.9433 H   0  0  0  0  0  0
    1.8841    1.3658   -5.5927 H   0  0  0  0  0  0
    0.8372   -0.8268   -6.1693 H   0  0  0  0  0  0
    0.5907   -1.1884   -4.4475 H   0  0  0  0  0  0
    2.2260   -1.1010   -5.0958 H   0  0  0  0  0  0
    5.0859    1.4480    2.2186 H   0  0  0  0  0  0
    4.2137    0.4418    3.3583 H   0  0  0  0  0  0
    4.8097    2.0422    3.8768 H   0  0  0  0  0  0
    1.5526    3.5483    2.8870 H   0  0  0  0  0  0
    2.5506    3.2374    4.3135 H   0  0  0  0  0  0
    3.0990    5.4794    3.3568 H   0  0  0  0  0  0
    3.4765    4.7385    1.7901 H   0  0  0  0  0  0
    4.5027    4.4155    3.1954 H   0  0  0  0  0  0
   -1.8880    1.6065    2.3464 H   0  0  0  0  0  0
   -0.1834    1.0734    2.3643 H   0  0  0  0  0  0
   -1.4119    0.0233    1.6685 H   0  0  0  0  0  0
  1  2  1  0  0  0
  1 21  1  0  0  0
  1 22  1  0  0  0
  1 23  1  0  0  0
  2  3  1  0  0  0
  2 24  1  0  0  0
  2 25  1  0  0  0
  3  4  2  0  0  0
  3 20  1  0  0  0
  4  5  1  0  0  0
  5  6  1  0  0  0
  6  7  1  0  0  0
  6  8  1  0  0  0
  6 14  1  0  0  0
  7 26  1  0  0  0
  7 27  1  0  0  0
  7 28  1  0  0  0
  8  9  1  0  0  0
  9 10  2  0  0  0
 10 11  1  0  0  0
 10 12  1  0  0  0
 11 29  1  0  0  0
 11 30  1  0  0  0
 11 31  1  0  0  0
 12 13  1  0  0  0
 12 32  1  0  0  0
 12 33  1  0  0  0
 13 34  1  0  0  0
 13 35  1  0  0  0
 13 36  1  0  0  0
 14 15  1  0  0  0
 15 16  2  0  0  0
 16 17  1  0  0  0
 16 18  1  0  0  0
 17 37  1  0  0  0
 17 38  1  0  0  0
 17 39  1  0  0  0
 18 19  1  0  0  0
 18 40  1  0  0  0
 18 41  1  0  0  0
 19 42  1  0  0  0
 19 43  1  0  0  0
 19 44  1  0  0  0
 20 45  1  0  0  0
 20 46  1  0  0  0
 20 47  1  0  0  0
M  END
>  <i_m_Spin_multiplicity> (1)
1

>  <s_j_Task> (1)
Single Point

>  <s_j_QM_Method> (1)
DFT(b3lyp-d3)

>  <s_j_QM_Basis> (1)
cc-pvtz(-f)

>  <i_j_Number_of_canonical_orbitals> (1)
705

>  <i_j_Geometry_convergence_category> (1)
1

>  <r_j_Gas_Phase_Energy> (1)
-1191.44931228646

>  <r_j_Final_Energy> (1)
-1191.44931228646

>  <r_j_HOMO> (1)
-0.231762860222219

>  <r_j_LUMO> (1)
-0.00361594315520195

>  <r_j_Polarizability> (1)
216.5116798262

>  <r_j_QM_Dipole_(debye)> (1)
3.07599532012244

>  <r_j_QM_Dipole_X_(debye)> (1)
-0.465951896942011

>  <r_j_QM_Dipole_Y_(debye)> (1)
2.51804651792415

>  <r_j_QM_Dipole_Z_(debye)> (1)
1.70413549130384

>  <r_j_Lowest_Frequency_(cm-1)> (1)
33.2979697461527

>  <r_j_Highest_Frequency_(cm-1)> (1)
3089.36971622939

>  <r_j_2nd_Lowest_Frequency_(cm-1)> (1)
36.5272264695867

>  <i_j_Num_Negative_Frequencies> (1)
0

>  <r_j_Zero_Point_Energy_(kcal/mol)> (1)
249.183873517776

>  <r_j_Entropy_(cal/mol/K)_298.15K_1.00E+00atm> (1)
161.35565932987

>  <r_j_Enthalpy_(kcal/mol)_298.15K_1.00E+00atm> (1)
16.1033410681355

>  <r_j_Free_Energy_(kcal/mol)_298.15K_1.00E+00atm> (1)
-32.0048487610651

>  <r_j_Internal_Energy_(kcal/mol)_298.15K_1.00E+00atm> (1)
15.5108554793082

>  <r_j_Heat_Capacity_(cal/mol/K)_298.15K_1.00E+00atm> (1)
93.1077108309813

>  <r_j_ln(Q)_298.15K_1.00E+00atm> (1)
54.0179362411385

>  <r_j_Total_Internal_Energy_(au)_298.15K_1.00E+00atm> (1)
-1191.02749438306

>  <r_j_Total_Enthalpy_(au)_298.15K_1.00E+00atm> (1)
-1191.02655019717

>  <r_j_Total_Free_Energy_(au)_298.15K_1.00E+00atm> (1)
-1191.10321547814

>  <r_lp_tautomer_probability> (1)
1

>  <r_epik_Ionization_Penalty> (1)
  0.0000

>  <r_epik_Ionization_Penalty_Charging> (1)
  0.0000

>  <r_epik_Ionization_Penalty_Neutral> (1)
  0.0000

>  <r_epik_State_Penalty> (1)
  0.0000

>  <r_epik_Charging_Adjusted_Penalty> (1)
0

>  <i_epik_Tot_Q> (1)
0

>  <i_epik_Tot_abs_Q> (1)
0

>  <s_lp_Force_Field> (1)
S-OPLS

>  <r_lp_Energy> (1)
7.791546

>  <b_lp_Chiralities_Consistent> (1)
1

>  <s_epik_Chemistry_Notes> (1)
This compound has an imine and may undergo hydrolysis.

$$$$
