9108_Dibenzo[a,h]pyrene
                    3D
 Schrodinger Suite 2021-3.
 38 43  0  0  1  0            999 V2000
    3.7009   -3.0325   -3.3030 C   0  0  0  0  0  0
    3.3514   -3.8485   -2.1993 C   0  0  0  0  0  0
    2.4805   -3.3913   -1.2374 C   0  0  0  0  0  0
    1.9029   -2.0927   -1.3144 C   0  0  0  0  0  0
    0.9894   -1.5769   -0.3329 C   0  0  0  0  0  0
    0.4573   -0.2689   -0.4832 C   0  0  0  0  0  0
    0.8345    0.5328   -1.6155 C   0  0  0  0  0  0
    1.7177    0.0230   -2.5572 C   0  0  0  0  0  0
    2.2622   -1.2697   -2.4366 C   0  0  0  0  0  0
    3.1667   -1.7741   -3.4146 C   0  0  0  0  0  0
    0.2801    1.8495   -1.7383 C   0  0  0  0  0  0
   -0.5852    2.3460   -0.8144 C   0  0  0  0  0  0
   -0.9894    1.5786    0.3323 C   0  0  0  0  0  0
   -0.4571    0.2705    0.4823 C   0  0  0  0  0  0
   -0.8343   -0.5315    1.6144 C   0  0  0  0  0  0
   -1.7172   -0.0231    2.5563 C   0  0  0  0  0  0
   -2.2619    1.2691    2.4363 C   0  0  0  0  0  0
   -3.1662    1.7717    3.4147 C   0  0  0  0  0  0
   -3.7010    3.0299    3.3042 C   0  0  0  0  0  0
   -3.3520    3.8468    2.2010 C   0  0  0  0  0  0
   -2.4810    3.3909    1.2385 C   0  0  0  0  0  0
   -1.9028    2.0927    1.3145 C   0  0  0  0  0  0
   -0.2802   -1.8478    1.7377 C   0  0  0  0  0  0
    0.5848   -2.3432    0.8138 C   0  0  0  0  0  0
    4.3893   -3.4051   -4.0558 H   0  0  0  0  0  0
    3.7759   -4.8445   -2.1130 H   0  0  0  0  0  0
    2.2361   -4.0433   -0.4072 H   0  0  0  0  0  0
    1.9980    0.6355   -3.4110 H   0  0  0  0  0  0
    3.4254   -1.1360   -4.2558 H   0  0  0  0  0  0
    0.5689    2.4513   -2.5959 H   0  0  0  0  0  0
   -0.9760    3.3469   -0.9528 H   0  0  0  0  0  0
   -1.9970   -0.6366    3.4096 H   0  0  0  0  0  0
   -3.4242    1.1325    4.2552 H   0  0  0  0  0  0
   -4.3895    3.4014    4.0574 H   0  0  0  0  0  0
   -3.7769    4.8426    2.1154 H   0  0  0  0  0  0
   -2.2368    4.0434    0.4087 H   0  0  0  0  0  0
   -0.5686   -2.4500    2.5950 H   0  0  0  0  0  0
    0.9759   -3.3438    0.9517 H   0  0  0  0  0  0
  1 10  1  0  0  0
  1  2  2  0  0  0
  1 25  1  0  0  0
  2  3  1  0  0  0
  2 26  1  0  0  0
  3  4  2  0  0  0
  3 27  1  0  0  0
  4  9  1  0  0  0
  4  5  1  0  0  0
  5 24  1  0  0  0
  5  6  2  0  0  0
  6 14  1  0  0  0
  6  7  1  0  0  0
  7  8  2  0  0  0
  7 11  1  0  0  0
  8  9  1  0  0  0
  8 28  1  0  0  0
  9 10  2  0  0  0
 10 29  1  0  0  0
 11 12  2  0  0  0
 11 30  1  0  0  0
 12 13  1  0  0  0
 12 31  1  0  0  0
 13 22  1  0  0  0
 13 14  2  0  0  0
 14 15  1  0  0  0
 15 16  2  0  0  0
 15 23  1  0  0  0
 16 17  1  0  0  0
 16 32  1  0  0  0
 17 22  1  0  0  0
 17 18  2  0  0  0
 18 19  1  0  0  0
 18 33  1  0  0  0
 19 20  2  0  0  0
 19 34  1  0  0  0
 20 21  1  0  0  0
 20 35  1  0  0  0
 21 22  2  0  0  0
 21 36  1  0  0  0
 23 24  2  0  0  0
 23 37  1  0  0  0
 24 38  1  0  0  0
M  END
>  <i_m_Spin_multiplicity> (1)
1

>  <s_j_Task> (1)
Single Point

>  <s_j_QM_Method> (1)
DFT(b3lyp-d3)

>  <s_j_QM_Basis> (1)
cc-pvtz(-f)

>  <i_j_Number_of_canonical_orbitals> (1)
652

>  <i_j_Geometry_convergence_category> (1)
3

>  <r_j_Gas_Phase_Energy> (1)
-923.347017089495

>  <r_j_Final_Energy> (1)
-923.347017089495

>  <r_j_HOMO> (1)
-0.18939438796351

>  <r_j_LUMO> (1)
-0.0841992914439418

>  <r_j_Polarizability> (1)
329.147032541763

>  <r_j_QM_Dipole_(debye)> (1)
0.00718431630710389

>  <r_j_QM_Dipole_X_(debye)> (1)
-0.000595634334646562

>  <r_j_QM_Dipole_Y_(debye)> (1)
-0.00561433166234263

>  <r_j_QM_Dipole_Z_(debye)> (1)
0.00444284824466537

>  <r_j_Lowest_Frequency_(cm-1)> (1)
53.758117434616

>  <r_j_Highest_Frequency_(cm-1)> (1)
3171.78486336789

>  <r_j_2nd_Lowest_Frequency_(cm-1)> (1)
99.1041810590363

>  <i_j_Num_Negative_Frequencies> (1)
0

>  <r_j_Zero_Point_Energy_(kcal/mol)> (1)
188.008014284613

>  <r_j_Entropy_(cal/mol/K)_298.15K_1.00E+00atm> (1)
119.835976680861

>  <r_j_Enthalpy_(kcal/mol)_298.15K_1.00E+00atm> (1)
10.0482165475445

>  <r_j_Free_Energy_(kcal/mol)_298.15K_1.00E+00atm> (1)
-25.6808798998541

>  <r_j_Internal_Energy_(kcal/mol)_298.15K_1.00E+00atm> (1)
9.45573095871721

>  <r_j_Heat_Capacity_(cal/mol/K)_298.15K_1.00E+00atm> (1)
67.2633444572284

>  <r_j_ln(Q)_298.15K_1.00E+00atm> (1)
43.3443114636512

>  <r_j_Total_Internal_Energy_(au)_298.15K_1.00E+00atm> (1)
-923.032338579156

>  <r_j_Total_Enthalpy_(au)_298.15K_1.00E+00atm> (1)
-923.031394393264

>  <r_j_Total_Free_Energy_(au)_298.15K_1.00E+00atm> (1)
-923.088332333096

>  <r_lp_tautomer_probability> (1)
1

>  <r_epik_Ionization_Penalty> (1)
  0.0000

>  <r_epik_Ionization_Penalty_Charging> (1)
  0.0000

>  <r_epik_Ionization_Penalty_Neutral> (1)
  0.0000

>  <r_epik_State_Penalty> (1)
  0.0000

>  <r_epik_Charging_Adjusted_Penalty> (1)
0

>  <i_epik_Tot_Q> (1)
0

>  <i_epik_Tot_abs_Q> (1)
0

>  <s_lp_Force_Field> (1)
S-OPLS

>  <r_lp_Energy> (1)
60.747

>  <b_lp_Chiralities_Consistent> (1)
1

$$$$
