9118_Dibenzo[def,mno]chrysene
                    3D
 Schrodinger Suite 2021-3.
 34 39  0  0  1  0            999 V2000
   -0.0479    1.4056    0.0105 C   0  0  0  0  0  0
    1.1416    2.1497    0.0026 C   0  0  0  0  0  0
    2.3832    1.5114   -0.0126 C   0  0  0  0  0  0
    2.4317    0.0822   -0.0201 C   0  0  0  0  0  0
    1.2156   -0.6736   -0.0120 C   0  0  0  0  0  0
   -0.0172    0.0220    0.0034 C   0  0  0  0  0  0
    1.2862   -2.0886   -0.0196 C   0  0  0  0  0  0
    2.4989   -2.7587   -0.0346 C   0  0  0  0  0  0
    2.5840   -4.1981   -0.0424 C   0  0  0  0  0  0
    3.7812   -4.8365   -0.0574 C   0  0  0  0  0  0
    5.0251   -4.1067   -0.0661 C   0  0  0  0  0  0
    4.9764   -2.6778   -0.0584 C   0  0  0  0  0  0
    3.7269   -2.0055   -0.0429 C   0  0  0  0  0  0
    3.6812   -0.5904   -0.0356 C   0  0  0  0  0  0
    4.9093    0.1625   -0.0440 C   0  0  0  0  0  0
    6.1218   -0.5076   -0.0589 C   0  0  0  0  0  0
    6.1925   -1.9224   -0.0665 C   0  0  0  0  0  0
    7.4250   -2.6181   -0.0818 C   0  0  0  0  0  0
    7.4558   -4.0014   -0.0892 C   0  0  0  0  0  0
    6.2664   -4.7452   -0.0814 C   0  0  0  0  0  0
    4.8244    1.6018   -0.0362 C   0  0  0  0  0  0
    3.6275    2.2408   -0.0214 C   0  0  0  0  0  0
   -1.0025    1.9237    0.0224 H   0  0  0  0  0  0
    1.1025    3.2357    0.0084 H   0  0  0  0  0  0
   -0.9423   -0.5480    0.0095 H   0  0  0  0  0  0
    0.3605   -2.6594   -0.0134 H   0  0  0  0  0  0
    1.6575   -4.7663   -0.0360 H   0  0  0  0  0  0
    3.8237   -5.9226   -0.0632 H   0  0  0  0  0  0
    7.0474    0.0632   -0.0650 H   0  0  0  0  0  0
    8.3500   -2.0482   -0.0878 H   0  0  0  0  0  0
    8.4103   -4.5195   -0.1011 H   0  0  0  0  0  0
    6.3050   -5.8312   -0.0873 H   0  0  0  0  0  0
    5.7510    2.1697   -0.0427 H   0  0  0  0  0  0
    3.5853    3.3269   -0.0157 H   0  0  0  0  0  0
  1  6  1  0  0  0
  1  2  2  0  0  0
  1 23  1  0  0  0
  2  3  1  0  0  0
  2 24  1  0  0  0
  3 22  1  0  0  0
  3  4  2  0  0  0
  4 14  1  0  0  0
  4  5  1  0  0  0
  5  6  2  0  0  0
  5  7  1  0  0  0
  6 25  1  0  0  0
  7  8  2  0  0  0
  7 26  1  0  0  0
  8 13  1  0  0  0
  8  9  1  0  0  0
  9 10  2  0  0  0
  9 27  1  0  0  0
 10 11  1  0  0  0
 10 28  1  0  0  0
 11 20  1  0  0  0
 11 12  2  0  0  0
 12 17  1  0  0  0
 12 13  1  0  0  0
 13 14  2  0  0  0
 14 15  1  0  0  0
 15 16  2  0  0  0
 15 21  1  0  0  0
 16 17  1  0  0  0
 16 29  1  0  0  0
 17 18  2  0  0  0
 18 19  1  0  0  0
 18 30  1  0  0  0
 19 20  2  0  0  0
 19 31  1  0  0  0
 20 32  1  0  0  0
 21 22  2  0  0  0
 21 33  1  0  0  0
 22 34  1  0  0  0
M  END
>  <i_m_Spin_multiplicity> (1)
1

>  <s_j_Task> (1)
Single Point

>  <s_j_QM_Method> (1)
DFT(b3lyp-d3)

>  <s_j_QM_Basis> (1)
cc-pvtz(-f)

>  <i_j_Number_of_canonical_orbitals> (1)
591

>  <i_j_Geometry_convergence_category> (1)
0

>  <r_j_Gas_Phase_Energy> (1)
-845.911334324548

>  <r_j_Final_Energy> (1)
-845.911334324548

>  <r_j_HOMO> (1)
-0.196601126292893

>  <r_j_LUMO> (1)
-0.091861693246204

>  <r_j_Polarizability> (1)
285.879010417194

>  <r_j_QM_Dipole_(debye)> (1)
0.00216270463664195

>  <r_j_QM_Dipole_X_(debye)> (1)
0.00174848620306531

>  <r_j_QM_Dipole_Y_(debye)> (1)
-0.00127197085776865

>  <r_j_QM_Dipole_Z_(debye)> (1)
-4.66634764046282e-05

>  <r_j_Lowest_Frequency_(cm-1)> (1)
81.5019731226793

>  <r_j_Highest_Frequency_(cm-1)> (1)
3143.93075812026

>  <r_j_2nd_Lowest_Frequency_(cm-1)> (1)
113.670198543338

>  <i_j_Num_Negative_Frequencies> (1)
0

>  <r_j_Zero_Point_Energy_(kcal/mol)> (1)
166.740009572522

>  <r_j_Entropy_(cal/mol/K)_298.15K_1.00E+00atm> (1)
110.658315060309

>  <r_j_Enthalpy_(kcal/mol)_298.15K_1.00E+00atm> (1)
8.79357792191229

>  <r_j_Free_Energy_(kcal/mol)_298.15K_1.00E+00atm> (1)
-24.1991987133189

>  <r_j_Internal_Energy_(kcal/mol)_298.15K_1.00E+00atm> (1)
8.20109233308502

>  <r_j_Heat_Capacity_(cal/mol/K)_298.15K_1.00E+00atm> (1)
59.5547935705715

>  <r_j_ln(Q)_298.15K_1.00E+00atm> (1)
40.8435228968474

>  <r_j_Total_Internal_Energy_(au)_298.15K_1.00E+00atm> (1)
-845.632547931244

>  <r_j_Total_Enthalpy_(au)_298.15K_1.00E+00atm> (1)
-845.631603745352

>  <r_j_Total_Free_Energy_(au)_298.15K_1.00E+00atm> (1)
-845.68418108197

>  <r_lp_tautomer_probability> (1)
1

>  <r_epik_Ionization_Penalty> (1)
  0.0000

>  <r_epik_Ionization_Penalty_Charging> (1)
  0.0000

>  <r_epik_Ionization_Penalty_Neutral> (1)
  0.0000

>  <r_epik_State_Penalty> (1)
  0.0000

>  <r_epik_Charging_Adjusted_Penalty> (1)
0

>  <i_epik_Tot_Q> (1)
0

>  <i_epik_Tot_abs_Q> (1)
0

>  <s_lp_Force_Field> (1)
S-OPLS

>  <r_lp_Energy> (1)
54.8678

>  <b_lp_Chiralities_Consistent> (1)
1

$$$$
