91195_Thujen-2-one
                    3D
 Schrodinger Suite 2021-3.
 25 26  0  0  1  0            999 V2000
   -3.0685   -0.5953    2.2907 C   0  0  0  0  0  0
   -2.0171   -0.0113    1.4055 C   0  0  0  0  0  0
   -1.9868    1.2259    0.8681 C   0  0  0  0  0  0
   -0.7605    1.4129    0.0576 C   0  0  0  0  0  0
   -0.3954    2.4377   -0.4961 O   0  0  0  0  0  0
   -0.0060    0.0859    0.0727 C   0  0  0  0  0  0
   -0.8351   -0.8149    0.9517 C   0  0  0  0  0  0
   -0.7812   -1.0662   -0.5463 C   0  0  0  0  0  0
    1.5160    0.0785    0.0485 C   0  0  0  0  0  0
    2.0889    0.9392    1.1846 C   0  0  0  0  0  0
    2.0465    0.5272   -1.3224 C   0  0  0  0  0  0
   -3.5052   -1.4899    1.8294 H   0  0  0  0  0  0
   -3.8689    0.1182    2.5006 H   0  0  0  0  0  0
   -2.6323   -0.9189    3.2442 H   0  0  0  0  0  0
   -2.7398    1.9974    0.9770 H   0  0  0  0  0  0
   -0.3800   -1.5366    1.6248 H   0  0  0  0  0  0
   -1.6740   -0.8608   -1.1305 H   0  0  0  0  0  0
   -0.1873   -1.9064   -0.8984 H   0  0  0  0  0  0
    1.8300   -0.9623    0.2176 H   0  0  0  0  0  0
    1.8080    1.9879    1.0482 H   0  0  0  0  0  0
    3.1820    0.8812    1.2026 H   0  0  0  0  0  0
    1.7147    0.6089    2.1598 H   0  0  0  0  0  0
    1.7239    1.5500   -1.5313 H   0  0  0  0  0  0
    1.6656   -0.1191   -2.1204 H   0  0  0  0  0  0
    3.1409    0.4901   -1.3469 H   0  0  0  0  0  0
  1  2  1  0  0  0
  1 12  1  0  0  0
  1 13  1  0  0  0
  1 14  1  0  0  0
  2  7  1  0  0  0
  2  3  2  0  0  0
  3  4  1  0  0  0
  3 15  1  0  0  0
  4  5  2  0  0  0
  4  6  1  0  0  0
  6  8  1  0  0  0
  6  7  1  0  0  0
  6  9  1  0  0  0
  7  8  1  0  0  0
  7 16  1  0  0  0
  8 17  1  0  0  0
  8 18  1  0  0  0
  9 10  1  0  0  0
  9 11  1  0  0  0
  9 19  1  0  0  0
 10 20  1  0  0  0
 10 21  1  0  0  0
 10 22  1  0  0  0
 11 23  1  0  0  0
 11 24  1  0  0  0
 11 25  1  0  0  0
M  END
>  <i_m_Spin_multiplicity> (1)
1

>  <s_j_Task> (1)
Single Point

>  <s_j_QM_Method> (1)
DFT(b3lyp-d3)

>  <s_j_QM_Basis> (1)
cc-pvtz(-f)

>  <i_j_Number_of_canonical_orbitals> (1)
374

>  <i_j_Geometry_convergence_category> (1)
0

>  <r_j_Gas_Phase_Energy> (1)
-464.859394711565

>  <r_j_Final_Energy> (1)
-464.859394711565

>  <r_j_HOMO> (1)
-0.239549341442464

>  <r_j_LUMO> (1)
-0.0573642419741891

>  <r_j_Polarizability> (1)
113.716863821581

>  <r_j_QM_Dipole_(debye)> (1)
4.10076035735263

>  <r_j_QM_Dipole_X_(debye)> (1)
-1.20147073032966

>  <r_j_QM_Dipole_Y_(debye)> (1)
-3.47485226101931

>  <r_j_QM_Dipole_Z_(debye)> (1)
1.81606865417719

>  <r_j_Lowest_Frequency_(cm-1)> (1)
89.5782538581925

>  <r_j_Highest_Frequency_(cm-1)> (1)
3168.68842866532

>  <r_j_2nd_Lowest_Frequency_(cm-1)> (1)
131.724498881197

>  <i_j_Num_Negative_Frequencies> (1)
0

>  <r_j_Zero_Point_Energy_(kcal/mol)> (1)
134.968604691522

>  <r_j_Entropy_(cal/mol/K)_298.15K_1.00E+00atm> (1)
98.4238479082738

>  <r_j_Enthalpy_(kcal/mol)_298.15K_1.00E+00atm> (1)
7.29764355344359

>  <r_j_Free_Energy_(kcal/mol)_298.15K_1.00E+00atm> (1)
-22.0474267004083

>  <r_j_Internal_Energy_(kcal/mol)_298.15K_1.00E+00atm> (1)
6.70515796461631

>  <r_j_Heat_Capacity_(cal/mol/K)_298.15K_1.00E+00atm> (1)
42.5263997475534

>  <r_j_ln(Q)_298.15K_1.00E+00atm> (1)
37.2117518403231

>  <r_j_Total_Internal_Energy_(au)_298.15K_1.00E+00atm> (1)
-464.633623198259

>  <r_j_Total_Enthalpy_(au)_298.15K_1.00E+00atm> (1)
-464.632679012367

>  <r_j_Total_Free_Energy_(au)_298.15K_1.00E+00atm> (1)
-464.679443358814

>  <r_lp_tautomer_probability> (1)
1

>  <r_epik_Ionization_Penalty> (1)
  0.0000

>  <r_epik_Ionization_Penalty_Charging> (1)
  0.0000

>  <r_epik_Ionization_Penalty_Neutral> (1)
  0.0000

>  <r_epik_State_Penalty> (1)
  0.0000

>  <r_epik_Charging_Adjusted_Penalty> (1)
0

>  <i_epik_Tot_Q> (1)
0

>  <i_epik_Tot_abs_Q> (1)
0

>  <s_lp_Force_Field> (1)
S-OPLS

>  <r_lp_Energy> (1)
0.164366

>  <b_lp_Chiralities_Consistent> (1)
1

$$$$
