9146_Benzo[a]fluoranthene
                    3D
 Schrodinger Suite 2021-3.
 32 36  0  0  1  0            999 V2000
    2.4423    1.8890    3.1997 C   0  0  0  0  0  0
    2.6217    2.4258    1.8958 C   0  0  0  0  0  0
    1.9219    1.9232    0.8292 C   0  0  0  0  0  0
    0.9948    0.8514    0.9872 C   0  0  0  0  0  0
    0.8097    0.2995    2.3240 C   0  0  0  0  0  0
    1.5636    0.8592    3.4016 C   0  0  0  0  0  0
   -0.0857   -0.7591    2.5654 C   0  0  0  0  0  0
   -0.8326   -1.3203    1.5216 C   0  0  0  0  0  0
   -1.7750   -2.3935    1.6164 C   0  0  0  0  0  0
   -2.4357   -2.8379    0.4928 C   0  0  0  0  0  0
   -2.2187   -2.2624   -0.7980 C   0  0  0  0  0  0
   -1.3201   -1.2304   -0.9230 C   0  0  0  0  0  0
   -0.6351   -0.7683    0.2373 C   0  0  0  0  0  0
    0.2418    0.2854   -0.0628 C   0  0  0  0  0  0
    0.1176    0.5242   -1.5184 C   0  0  0  0  0  0
    0.7254    1.4271   -2.3900 C   0  0  0  0  0  0
    0.3891    1.4043   -3.7488 C   0  0  0  0  0  0
   -0.5449    0.4925   -4.2451 C   0  0  0  0  0  0
   -1.1648   -0.4204   -3.3858 C   0  0  0  0  0  0
   -0.8371   -0.4049   -2.0360 C   0  0  0  0  0  0
    3.0050    2.2993    4.0329 H   0  0  0  0  0  0
    3.3215    3.2429    1.7458 H   0  0  0  0  0  0
    2.0741    2.3467   -0.1549 H   0  0  0  0  0  0
    1.4227    0.4451    4.3966 H   0  0  0  0  0  0
   -0.1913   -1.1388    3.5788 H   0  0  0  0  0  0
   -1.9643   -2.8541    2.5821 H   0  0  0  0  0  0
   -3.1475   -3.6535    0.5838 H   0  0  0  0  0  0
   -2.7644   -2.6476   -1.6549 H   0  0  0  0  0  0
    1.4541    2.1481   -2.0386 H   0  0  0  0  0  0
    0.8638    2.1086   -4.4259 H   0  0  0  0  0  0
   -0.7907    0.4927   -5.3029 H   0  0  0  0  0  0
   -1.8923   -1.1317   -3.7674 H   0  0  0  0  0  0
  1  6  1  0  0  0
  1  2  2  0  0  0
  1 21  1  0  0  0
  2  3  1  0  0  0
  2 22  1  0  0  0
  3  4  2  0  0  0
  3 23  1  0  0  0
  4 14  1  0  0  0
  4  5  1  0  0  0
  5  6  2  0  0  0
  5  7  1  0  0  0
  6 24  1  0  0  0
  7  8  2  0  0  0
  7 25  1  0  0  0
  8 13  1  0  0  0
  8  9  1  0  0  0
  9 10  2  0  0  0
  9 26  1  0  0  0
 10 11  1  0  0  0
 10 27  1  0  0  0
 11 12  2  0  0  0
 11 28  1  0  0  0
 12 20  1  0  0  0
 12 13  1  0  0  0
 13 14  2  0  0  0
 14 15  1  0  0  0
 15 20  1  0  0  0
 15 16  2  0  0  0
 16 17  1  0  0  0
 16 29  1  0  0  0
 17 18  2  0  0  0
 17 30  1  0  0  0
 18 19  1  0  0  0
 18 31  1  0  0  0
 19 20  2  0  0  0
 19 32  1  0  0  0
M  END
>  <i_m_Spin_multiplicity> (1)
1

>  <s_j_Task> (1)
Single Point

>  <s_j_QM_Method> (1)
DFT(b3lyp-d3)

>  <s_j_QM_Basis> (1)
cc-pvtz(-f)

>  <i_j_Number_of_canonical_orbitals> (1)
547

>  <i_j_Geometry_convergence_category> (1)
3

>  <r_j_Gas_Phase_Energy> (1)
-769.632147120803

>  <r_j_Final_Energy> (1)
-769.632147120803

>  <r_j_HOMO> (1)
-0.20459783368864

>  <r_j_LUMO> (1)
-0.0926237079471954

>  <r_j_Polarizability> (1)
248.437051583727

>  <r_j_QM_Dipole_(debye)> (1)
0.602629661273089

>  <r_j_QM_Dipole_X_(debye)> (1)
-0.0322420821862352

>  <r_j_QM_Dipole_Y_(debye)> (1)
-0.183774830915012

>  <r_j_QM_Dipole_Z_(debye)> (1)
0.573018122143247

>  <r_j_Lowest_Frequency_(cm-1)> (1)
92.5803921196832

>  <r_j_Highest_Frequency_(cm-1)> (1)
3185.47250291903

>  <r_j_2nd_Lowest_Frequency_(cm-1)> (1)
101.520633988128

>  <i_j_Num_Negative_Frequencies> (1)
0

>  <r_j_Zero_Point_Energy_(kcal/mol)> (1)
158.096492765271

>  <r_j_Entropy_(cal/mol/K)_298.15K_1.00E+00atm> (1)
110.200592539781

>  <r_j_Enthalpy_(kcal/mol)_298.15K_1.00E+00atm> (1)
8.6024157661508

>  <r_j_Free_Energy_(kcal/mol)_298.15K_1.00E+00atm> (1)
-24.2538908995849

>  <r_j_Internal_Energy_(kcal/mol)_298.15K_1.00E+00atm> (1)
8.00993017732352

>  <r_j_Heat_Capacity_(cal/mol/K)_298.15K_1.00E+00atm> (1)
56.1600758526714

>  <r_j_ln(Q)_298.15K_1.00E+00atm> (1)
40.9358326294339

>  <r_j_Total_Internal_Energy_(au)_298.15K_1.00E+00atm> (1)
-769.367439684687

>  <r_j_Total_Enthalpy_(au)_298.15K_1.00E+00atm> (1)
-769.366495498794

>  <r_j_Total_Free_Energy_(au)_298.15K_1.00E+00atm> (1)
-769.418855356672

>  <r_lp_tautomer_probability> (1)
1

>  <r_epik_Ionization_Penalty> (1)
  0.0000

>  <r_epik_Ionization_Penalty_Charging> (1)
  0.0000

>  <r_epik_Ionization_Penalty_Neutral> (1)
  0.0000

>  <r_epik_State_Penalty> (1)
  0.0000

>  <r_epik_Charging_Adjusted_Penalty> (1)
0

>  <i_epik_Tot_Q> (1)
0

>  <i_epik_Tot_abs_Q> (1)
0

>  <s_lp_Force_Field> (1)
S-OPLS

>  <r_lp_Energy> (1)
39.3169

>  <b_lp_Chiralities_Consistent> (1)
1

$$$$
