9147_4H-cyclopenta(def)phenanthrene
                    3D
 Schrodinger Suite 2021-3.
 25 28  0  0  1  0            999 V2000
   -1.7324    1.2270   -0.9219 C   0  0  0  0  0  0
   -0.3294    1.7062   -0.5215 C   0  0  0  0  0  0
    0.3422    2.9141   -0.5604 C   0  0  0  0  0  0
    1.6795    2.9579   -0.0823 C   0  0  0  0  0  0
    2.3454    1.8445    0.4230 C   0  0  0  0  0  0
    1.6811    0.5956    0.4744 C   0  0  0  0  0  0
    0.3676    0.6021   -0.0068 C   0  0  0  0  0  0
   -0.4379   -0.5522   -0.0297 C   0  0  0  0  0  0
    0.0126   -1.7951    0.4271 C   0  0  0  0  0  0
   -0.9288   -2.8478    0.3302 C   0  0  0  0  0  0
   -2.1939   -2.5935   -0.1923 C   0  0  0  0  0  0
   -2.6056   -1.3109   -0.6443 C   0  0  0  0  0  0
   -1.7050   -0.2653   -0.5607 C   0  0  0  0  0  0
    1.3687   -1.8132    0.9271 C   0  0  0  0  0  0
    2.1567   -0.6840    0.9495 C   0  0  0  0  0  0
   -1.9276    1.3844   -1.9898 H   0  0  0  0  0  0
   -2.5181    1.7642   -0.3768 H   0  0  0  0  0  0
   -0.1200    3.8200   -0.9425 H   0  0  0  0  0  0
    2.2054    3.9082   -0.1141 H   0  0  0  0  0  0
    3.3695    1.9386    0.7747 H   0  0  0  0  0  0
   -0.6701   -3.8504    0.6605 H   0  0  0  0  0  0
   -2.9036   -3.4137   -0.2591 H   0  0  0  0  0  0
   -3.6080   -1.1797   -1.0420 H   0  0  0  0  0  0
    1.7755   -2.7513    1.2966 H   0  0  0  0  0  0
    3.1705   -0.7525    1.3361 H   0  0  0  0  0  0
  1 13  1  0  0  0
  1  2  1  0  0  0
  1 16  1  0  0  0
  1 17  1  0  0  0
  2  7  1  0  0  0
  2  3  2  0  0  0
  3  4  1  0  0  0
  3 18  1  0  0  0
  4  5  2  0  0  0
  4 19  1  0  0  0
  5  6  1  0  0  0
  5 20  1  0  0  0
  6 15  1  0  0  0
  6  7  2  0  0  0
  7  8  1  0  0  0
  8 13  1  0  0  0
  8  9  2  0  0  0
  9 10  1  0  0  0
  9 14  1  0  0  0
 10 11  2  0  0  0
 10 21  1  0  0  0
 11 12  1  0  0  0
 11 22  1  0  0  0
 12 13  2  0  0  0
 12 23  1  0  0  0
 14 15  2  0  0  0
 14 24  1  0  0  0
 15 25  1  0  0  0
M  END
>  <i_m_Spin_multiplicity> (1)
1

>  <s_j_Task> (1)
Single Point

>  <s_j_QM_Method> (1)
DFT(b3lyp-d3)

>  <s_j_QM_Basis> (1)
cc-pvtz(-f)

>  <i_j_Number_of_canonical_orbitals> (1)
422

>  <i_j_Geometry_convergence_category> (1)
0

>  <r_j_Gas_Phase_Energy> (1)
-577.826784306719

>  <r_j_Final_Energy> (1)
-577.826784306719

>  <r_j_HOMO> (1)
-0.218639749194537

>  <r_j_LUMO> (1)
-0.0505391669138284

>  <r_j_Polarizability> (1)
168.999568060731

>  <r_j_QM_Dipole_(debye)> (1)
0.628331774258129

>  <r_j_QM_Dipole_X_(debye)> (1)
-0.470140279792639

>  <r_j_QM_Dipole_Y_(debye)> (1)
0.332520699586992

>  <r_j_QM_Dipole_Z_(debye)> (1)
-0.251393954193503

>  <r_j_Lowest_Frequency_(cm-1)> (1)
114.059401431227

>  <r_j_Highest_Frequency_(cm-1)> (1)
3141.04064375281

>  <r_j_2nd_Lowest_Frequency_(cm-1)> (1)
199.276527582736

>  <i_j_Num_Negative_Frequencies> (1)
0

>  <r_j_Zero_Point_Energy_(kcal/mol)> (1)
125.193605054021

>  <r_j_Entropy_(cal/mol/K)_298.15K_1.00E+00atm> (1)
94.212885440927

>  <r_j_Enthalpy_(kcal/mol)_298.15K_1.00E+00atm> (1)
6.47389373613074

>  <r_j_Free_Energy_(kcal/mol)_298.15K_1.00E+00atm> (1)
-21.6156780580816

>  <r_j_Internal_Energy_(kcal/mol)_298.15K_1.00E+00atm> (1)
5.88140814730347

>  <r_j_Heat_Capacity_(cal/mol/K)_298.15K_1.00E+00atm> (1)
41.7791865963126

>  <r_j_ln(Q)_298.15K_1.00E+00atm> (1)
36.483044424534

>  <r_j_Total_Internal_Energy_(au)_298.15K_1.00E+00atm> (1)
-577.61790297589

>  <r_j_Total_Enthalpy_(au)_298.15K_1.00E+00atm> (1)
-577.616958789998

>  <r_j_Total_Free_Energy_(au)_298.15K_1.00E+00atm> (1)
-577.661722372281

>  <r_lp_tautomer_probability> (1)
1

>  <r_epik_Ionization_Penalty> (1)
  0.0000

>  <r_epik_Ionization_Penalty_Charging> (1)
  0.0000

>  <r_epik_Ionization_Penalty_Neutral> (1)
  0.0000

>  <r_epik_State_Penalty> (1)
  0.0000

>  <r_epik_Charging_Adjusted_Penalty> (1)
0

>  <i_epik_Tot_Q> (1)
0

>  <i_epik_Tot_abs_Q> (1)
0

>  <s_lp_Force_Field> (1)
S-OPLS

>  <r_lp_Energy> (1)
36.0662

>  <b_lp_Chiralities_Consistent> (1)
1

$$$$
