9152_Benzo[j]fluoranthene
                    3D
 Schrodinger Suite 2021-3.
 32 36  0  0  1  0            999 V2000
   -0.0907    1.3551    0.0118 C   0  0  0  0  0  0
    1.0942    2.1277    0.0063 C   0  0  0  0  0  0
    2.3274    1.5173   -0.0089 C   0  0  0  0  0  0
    2.4492    0.1013   -0.0194 C   0  0  0  0  0  0
    1.2409   -0.6833   -0.0137 C   0  0  0  0  0  0
   -0.0135   -0.0178    0.0020 C   0  0  0  0  0  0
    1.3119   -2.1029   -0.0237 C   0  0  0  0  0  0
    2.5230   -2.7573   -0.0390 C   0  0  0  0  0  0
    3.7105   -2.0029   -0.0447 C   0  0  0  0  0  0
    3.6907   -0.5931   -0.0352 C   0  0  0  0  0  0
    5.0965   -0.1209   -0.0446 C   0  0  0  0  0  0
    5.7530    1.0973   -0.0422 C   0  0  0  0  0  0
    7.1760    1.1221   -0.0548 C   0  0  0  0  0  0
    7.9428   -0.0282   -0.0695 C   0  0  0  0  0  0
    7.3047   -1.3002   -0.0724 C   0  0  0  0  0  0
    5.9033   -1.2908   -0.0597 C   0  0  0  0  0  0
    5.1076   -2.4599   -0.0604 C   0  0  0  0  0  0
    5.7342   -3.6890   -0.0744 C   0  0  0  0  0  0
    7.1561   -3.7298   -0.0875 C   0  0  0  0  0  0
    7.9279   -2.5812   -0.0867 C   0  0  0  0  0  0
   -1.0577    1.8490    0.0237 H   0  0  0  0  0  0
    1.0286    3.2119    0.0141 H   0  0  0  0  0  0
    3.2211    2.1273   -0.0129 H   0  0  0  0  0  0
   -0.9192   -0.6190    0.0061 H   0  0  0  0  0  0
    0.3835   -2.6675   -0.0191 H   0  0  0  0  0  0
    2.5671   -3.8422   -0.0465 H   0  0  0  0  0  0
    5.2237    2.0424   -0.0311 H   0  0  0  0  0  0
    7.6724    2.0882   -0.0527 H   0  0  0  0  0  0
    9.0275    0.0349   -0.0788 H   0  0  0  0  0  0
    5.1692   -4.6170   -0.0756 H   0  0  0  0  0  0
    7.6481   -4.6981   -0.0985 H   0  0  0  0  0  0
    9.0123   -2.6518   -0.0969 H   0  0  0  0  0  0
  1  6  1  0  0  0
  1  2  2  0  0  0
  1 21  1  0  0  0
  2  3  1  0  0  0
  2 22  1  0  0  0
  3  4  2  0  0  0
  3 23  1  0  0  0
  4 10  1  0  0  0
  4  5  1  0  0  0
  5  6  2  0  0  0
  5  7  1  0  0  0
  6 24  1  0  0  0
  7  8  2  0  0  0
  7 25  1  0  0  0
  8  9  1  0  0  0
  8 26  1  0  0  0
  9 17  1  0  0  0
  9 10  2  0  0  0
 10 11  1  0  0  0
 11 16  1  0  0  0
 11 12  2  0  0  0
 12 13  1  0  0  0
 12 27  1  0  0  0
 13 14  2  0  0  0
 13 28  1  0  0  0
 14 15  1  0  0  0
 14 29  1  0  0  0
 15 20  1  0  0  0
 15 16  2  0  0  0
 16 17  1  0  0  0
 17 18  2  0  0  0
 18 19  1  0  0  0
 18 30  1  0  0  0
 19 20  2  0  0  0
 19 31  1  0  0  0
 20 32  1  0  0  0
M  END
>  <i_m_Spin_multiplicity> (1)
1

>  <s_j_Task> (1)
Single Point

>  <s_j_QM_Method> (1)
DFT(b3lyp-d3)

>  <s_j_QM_Basis> (1)
cc-pvtz(-f)

>  <i_j_Number_of_canonical_orbitals> (1)
547

>  <i_j_Geometry_convergence_category> (1)
0

>  <r_j_Gas_Phase_Energy> (1)
-769.636725982924

>  <r_j_Final_Energy> (1)
-769.636725982924

>  <r_j_HOMO> (1)
-0.212645052146032

>  <r_j_LUMO> (1)
-0.0887977873975931

>  <r_j_Polarizability> (1)
244.059199329865

>  <r_j_QM_Dipole_(debye)> (1)
0.397357768219034

>  <r_j_QM_Dipole_X_(debye)> (1)
0.383099836951444

>  <r_j_QM_Dipole_Y_(debye)> (1)
-0.105403940615424

>  <r_j_QM_Dipole_Z_(debye)> (1)
-0.00420953614181073

>  <r_j_Lowest_Frequency_(cm-1)> (1)
75.8152008927369

>  <r_j_Highest_Frequency_(cm-1)> (1)
3186.06547528105

>  <r_j_2nd_Lowest_Frequency_(cm-1)> (1)
96.5046368728685

>  <i_j_Num_Negative_Frequencies> (1)
0

>  <r_j_Zero_Point_Energy_(kcal/mol)> (1)
158.208467449506

>  <r_j_Entropy_(cal/mol/K)_298.15K_1.00E+00atm> (1)
109.708514520226

>  <r_j_Enthalpy_(kcal/mol)_298.15K_1.00E+00atm> (1)
8.55682701134653

>  <r_j_Free_Energy_(kcal/mol)_298.15K_1.00E+00atm> (1)
-24.1527665928589

>  <r_j_Internal_Energy_(kcal/mol)_298.15K_1.00E+00atm> (1)
7.96434142251926

>  <r_j_Heat_Capacity_(cal/mol/K)_298.15K_1.00E+00atm> (1)
56.0538940308335

>  <r_j_ln(Q)_298.15K_1.00E+00atm> (1)
40.7651545426872

>  <r_j_Total_Internal_Energy_(au)_298.15K_1.00E+00atm> (1)
-769.371912754094

>  <r_j_Total_Enthalpy_(au)_298.15K_1.00E+00atm> (1)
-769.370968568202

>  <r_j_Total_Free_Energy_(au)_298.15K_1.00E+00atm> (1)
-769.423094623932

>  <r_lp_tautomer_probability> (1)
1

>  <r_epik_Ionization_Penalty> (1)
  0.0000

>  <r_epik_Ionization_Penalty_Charging> (1)
  0.0000

>  <r_epik_Ionization_Penalty_Neutral> (1)
  0.0000

>  <r_epik_State_Penalty> (1)
  0.0000

>  <r_epik_Charging_Adjusted_Penalty> (1)
0

>  <i_epik_Tot_Q> (1)
0

>  <i_epik_Tot_abs_Q> (1)
0

>  <s_lp_Force_Field> (1)
S-OPLS

>  <r_lp_Energy> (1)
40.2858

>  <b_lp_Chiralities_Consistent> (1)
1

$$$$
