9153_Benzo[b]fluoranthene
                    3D
 Schrodinger Suite 2021-3.
 32 36  0  0  1  0            999 V2000
    0.6804   -2.5825    3.8328 C   0  0  0  0  0  0
   -0.7067   -2.7474    3.6737 C   0  0  0  0  0  0
   -1.3645   -2.1339    2.6221 C   0  0  0  0  0  0
   -0.6728   -1.3340    1.6893 C   0  0  0  0  0  0
   -1.3329   -0.6751    0.5726 C   0  0  0  0  0  0
   -0.5231    0.0863   -0.2708 C   0  0  0  0  0  0
   -0.9908    0.7938   -1.4010 C   0  0  0  0  0  0
   -2.3393    0.7389   -1.7073 C   0  0  0  0  0  0
   -3.1856   -0.0249   -0.8711 C   0  0  0  0  0  0
   -2.7098   -0.7150    0.2373 C   0  0  0  0  0  0
    0.1827    1.4544   -1.9979 C   0  0  0  0  0  0
    0.3087    2.2731   -3.1154 C   0  0  0  0  0  0
    1.5735    2.7676   -3.4519 C   0  0  0  0  0  0
    2.6959    2.4473   -2.6816 C   0  0  0  0  0  0
    2.5790    1.6248   -1.5562 C   0  0  0  0  0  0
    1.3259    1.1282   -1.2132 C   0  0  0  0  0  0
    0.8901    0.2573   -0.1103 C   0  0  0  0  0  0
    1.5132   -0.3591    0.9346 C   0  0  0  0  0  0
    0.7440   -1.1642    1.8510 C   0  0  0  0  0  0
    1.3868   -1.8048    2.9359 C   0  0  0  0  0  0
    1.1942   -3.0653    4.6588 H   0  0  0  0  0  0
   -1.2640   -3.3582    4.3778 H   0  0  0  0  0  0
   -2.4355   -2.2719    2.5142 H   0  0  0  0  0  0
   -2.7509    1.2639   -2.5644 H   0  0  0  0  0  0
   -4.2456   -0.0741   -1.1035 H   0  0  0  0  0  0
   -3.4083   -1.2847    0.8417 H   0  0  0  0  0  0
   -0.5596    2.5253   -3.7177 H   0  0  0  0  0  0
    1.6856    3.4079   -4.3220 H   0  0  0  0  0  0
    3.6687    2.8417   -2.9602 H   0  0  0  0  0  0
    3.4538    1.3790   -0.9611 H   0  0  0  0  0  0
    2.5832   -0.2622    1.1014 H   0  0  0  0  0  0
    2.4594   -1.6739    3.0547 H   0  0  0  0  0  0
  1 20  1  0  0  0
  1  2  2  0  0  0
  1 21  1  0  0  0
  2  3  1  0  0  0
  2 22  1  0  0  0
  3  4  2  0  0  0
  3 23  1  0  0  0
  4 19  1  0  0  0
  4  5  1  0  0  0
  5 10  1  0  0  0
  5  6  2  0  0  0
  6 17  1  0  0  0
  6  7  1  0  0  0
  7  8  2  0  0  0
  7 11  1  0  0  0
  8  9  1  0  0  0
  8 24  1  0  0  0
  9 10  2  0  0  0
  9 25  1  0  0  0
 10 26  1  0  0  0
 11 16  1  0  0  0
 11 12  2  0  0  0
 12 13  1  0  0  0
 12 27  1  0  0  0
 13 14  2  0  0  0
 13 28  1  0  0  0
 14 15  1  0  0  0
 14 29  1  0  0  0
 15 16  2  0  0  0
 15 30  1  0  0  0
 16 17  1  0  0  0
 17 18  2  0  0  0
 18 19  1  0  0  0
 18 31  1  0  0  0
 19 20  2  0  0  0
 20 32  1  0  0  0
M  END
>  <i_m_Spin_multiplicity> (1)
1

>  <s_j_Task> (1)
Single Point

>  <s_j_QM_Method> (1)
DFT(b3lyp-d3)

>  <s_j_QM_Basis> (1)
cc-pvtz(-f)

>  <i_j_Number_of_canonical_orbitals> (1)
547

>  <i_j_Geometry_convergence_category> (1)
0

>  <r_j_Gas_Phase_Energy> (1)
-769.643789408274

>  <r_j_Final_Energy> (1)
-769.643789408274

>  <r_j_HOMO> (1)
-0.217863866252572

>  <r_j_LUMO> (1)
-0.0750285730150887

>  <r_j_Polarizability> (1)
246.896193797806

>  <r_j_QM_Dipole_(debye)> (1)
0.372501925947108

>  <r_j_QM_Dipole_X_(debye)> (1)
-0.0507130484907024

>  <r_j_QM_Dipole_Y_(debye)> (1)
-0.219970115903237

>  <r_j_QM_Dipole_Z_(debye)> (1)
0.296308993546603

>  <r_j_Lowest_Frequency_(cm-1)> (1)
85.3623067630601

>  <r_j_Highest_Frequency_(cm-1)> (1)
3153.45289773295

>  <r_j_2nd_Lowest_Frequency_(cm-1)> (1)
118.184133308884

>  <i_j_Num_Negative_Frequencies> (1)
0

>  <r_j_Zero_Point_Energy_(kcal/mol)> (1)
158.25973316362

>  <r_j_Entropy_(cal/mol/K)_298.15K_1.00E+00atm> (1)
109.856120400605

>  <r_j_Enthalpy_(kcal/mol)_298.15K_1.00E+00atm> (1)
8.56191315406167

>  <r_j_Free_Energy_(kcal/mol)_298.15K_1.00E+00atm> (1)
-24.1916891433787

>  <r_j_Internal_Energy_(kcal/mol)_298.15K_1.00E+00atm> (1)
7.9694275652344

>  <r_j_Heat_Capacity_(cal/mol/K)_298.15K_1.00E+00atm> (1)
55.9237517508943

>  <r_j_ln(Q)_298.15K_1.00E+00atm> (1)
40.8308482089194

>  <r_j_Total_Internal_Energy_(au)_298.15K_1.00E+00atm> (1)
-769.378886377044

>  <r_j_Total_Enthalpy_(au)_298.15K_1.00E+00atm> (1)
-769.377942191152

>  <r_j_Total_Free_Energy_(au)_298.15K_1.00E+00atm> (1)
-769.430138379199

>  <r_lp_tautomer_probability> (1)
1

>  <r_epik_Ionization_Penalty> (1)
  0.0000

>  <r_epik_Ionization_Penalty_Charging> (1)
  0.0000

>  <r_epik_Ionization_Penalty_Neutral> (1)
  0.0000

>  <r_epik_State_Penalty> (1)
  0.0000

>  <r_epik_Charging_Adjusted_Penalty> (1)
0

>  <i_epik_Tot_Q> (1)
0

>  <i_epik_Tot_abs_Q> (1)
0

>  <s_lp_Force_Field> (1)
S-OPLS

>  <r_lp_Energy> (1)
40.6614

>  <b_lp_Chiralities_Consistent> (1)
1

$$$$
