9154_Fluoranthene
                    3D
 Schrodinger Suite 2021-3.
 26 29  0  0  1  0            999 V2000
    1.1431    3.3571    0.0234 C   0  0  0  0  0  0
    1.0576    4.0202    1.2509 C   0  0  0  0  0  0
    0.8674    5.4062    1.3041 C   0  0  0  0  0  0
    0.7645    6.1170    0.1137 C   0  0  0  0  0  0
    0.8517    5.4406   -1.1383 C   0  0  0  0  0  0
    1.0404    4.0638   -1.1807 C   0  0  0  0  0  0
    0.7099    6.4426   -2.2111 C   0  0  0  0  0  0
    0.7083    6.4127   -3.5905 C   0  0  0  0  0  0
    0.5385    7.6347   -4.2998 C   0  0  0  0  0  0
    0.3750    8.8507   -3.6584 C   0  0  0  0  0  0
    0.3722    8.9126   -2.2357 C   0  0  0  0  0  0
    0.5416    7.6925   -1.5648 C   0  0  0  0  0  0
    0.5666    7.5535   -0.1547 C   0  0  0  0  0  0
    0.4151    8.6862    0.6182 C   0  0  0  0  0  0
    0.2410    9.9393   -0.0334 C   0  0  0  0  0  0
    0.2182   10.0641   -1.4121 C   0  0  0  0  0  0
    1.2909    2.2812    0.0040 H   0  0  0  0  0  0
    1.1397    3.4534    2.1737 H   0  0  0  0  0  0
    0.8018    5.9163    2.2612 H   0  0  0  0  0  0
    1.1076    3.5429   -2.1319 H   0  0  0  0  0  0
    0.8331    5.4841   -4.1404 H   0  0  0  0  0  0
    0.5379    7.6075   -5.3858 H   0  0  0  0  0  0
    0.2484    9.7608   -4.2386 H   0  0  0  0  0  0
    0.4260    8.6409    1.7036 H   0  0  0  0  0  0
    0.1218   10.8291    0.5783 H   0  0  0  0  0  0
    0.0828   11.0406   -1.8694 H   0  0  0  0  0  0
  1  6  1  0  0  0
  1  2  2  0  0  0
  1 17  1  0  0  0
  2  3  1  0  0  0
  2 18  1  0  0  0
  3  4  2  0  0  0
  3 19  1  0  0  0
  4 13  1  0  0  0
  4  5  1  0  0  0
  5  6  2  0  0  0
  5  7  1  0  0  0
  6 20  1  0  0  0
  7 12  1  0  0  0
  7  8  2  0  0  0
  8  9  1  0  0  0
  8 21  1  0  0  0
  9 10  2  0  0  0
  9 22  1  0  0  0
 10 11  1  0  0  0
 10 23  1  0  0  0
 11 16  1  0  0  0
 11 12  2  0  0  0
 12 13  1  0  0  0
 13 14  2  0  0  0
 14 15  1  0  0  0
 14 24  1  0  0  0
 15 16  2  0  0  0
 15 25  1  0  0  0
 16 26  1  0  0  0
M  END
>  <i_m_Spin_multiplicity> (1)
1

>  <s_j_Task> (1)
Single Point

>  <s_j_QM_Method> (1)
DFT(b3lyp-d3)

>  <s_j_QM_Basis> (1)
cc-pvtz(-f)

>  <i_j_Number_of_canonical_orbitals> (1)
443

>  <i_j_Geometry_convergence_category> (1)
0

>  <r_j_Gas_Phase_Energy> (1)
-615.946471381443

>  <r_j_Final_Energy> (1)
-615.946471381443

>  <r_j_HOMO> (1)
-0.17437973381869

>  <r_j_LUMO> (1)
-0.0293953071212988

>  <r_j_Polarizability> (1)
186.833476714337

>  <r_j_QM_Dipole_(debye)> (1)
0.338809582534886

>  <r_j_QM_Dipole_X_(debye)> (1)
-0.0396839923445828

>  <r_j_QM_Dipole_Y_(debye)> (1)
0.294852383289773

>  <r_j_QM_Dipole_Z_(debye)> (1)
-0.162108562504883

>  <r_j_Lowest_Frequency_(cm-1)> (1)
119.846459241545

>  <r_j_Highest_Frequency_(cm-1)> (1)
3147.39007013535

>  <r_j_2nd_Lowest_Frequency_(cm-1)> (1)
140.27193463282

>  <i_j_Num_Negative_Frequencies> (1)
0

>  <r_j_Zero_Point_Energy_(kcal/mol)> (1)
128.90570746201

>  <r_j_Entropy_(cal/mol/K)_298.15K_1.00E+00atm> (1)
97.9460790982906

>  <r_j_Enthalpy_(kcal/mol)_298.15K_1.00E+00atm> (1)
6.92810836884729

>  <r_j_Free_Energy_(kcal/mol)_298.15K_1.00E+00atm> (1)
-22.274515114308

>  <r_j_Internal_Energy_(kcal/mol)_298.15K_1.00E+00atm> (1)
6.33562278002002

>  <r_j_Heat_Capacity_(cal/mol/K)_298.15K_1.00E+00atm> (1)
44.377276394592

>  <r_j_ln(Q)_298.15K_1.00E+00atm> (1)
37.5950327473731

>  <r_j_Total_Internal_Energy_(au)_298.15K_1.00E+00atm> (1)
-615.730950601745

>  <r_j_Total_Enthalpy_(au)_298.15K_1.00E+00atm> (1)
-615.730006415853

>  <r_j_Total_Free_Energy_(au)_298.15K_1.00E+00atm> (1)
-615.77654375892

>  <r_lp_tautomer_probability> (1)
1

>  <r_epik_Ionization_Penalty> (1)
  0.0000

>  <r_epik_Ionization_Penalty_Charging> (1)
  0.0000

>  <r_epik_Ionization_Penalty_Neutral> (1)
  0.0000

>  <r_epik_State_Penalty> (1)
  0.0000

>  <r_epik_Charging_Adjusted_Penalty> (1)
0

>  <i_epik_Tot_Q> (1)
0

>  <i_epik_Tot_abs_Q> (1)
0

>  <s_lp_Force_Field> (1)
S-OPLS

>  <r_lp_Energy> (1)
29.7356

>  <b_lp_Chiralities_Consistent> (1)
1

$$$$
