9170_Triphenylene
                    3D
 Schrodinger Suite 2021-3.
 30 33  0  0  1  0            999 V2000
   -8.7012   -0.7898    2.2692 C   0  0  0  0  0  0
   -8.0749    0.0209    3.2241 C   0  0  0  0  0  0
   -6.7584    0.4002    3.0405 C   0  0  0  0  0  0
   -6.0139   -0.0060    1.9098 C   0  0  0  0  0  0
   -6.6495   -0.8283    0.9413 C   0  0  0  0  0  0
   -7.9958   -1.2013    1.1541 C   0  0  0  0  0  0
   -5.9093   -1.2695   -0.2449 C   0  0  0  0  0  0
   -6.5090   -2.0874   -1.2290 C   0  0  0  0  0  0
   -5.8186   -2.5082   -2.3500 C   0  0  0  0  0  0
   -4.4849   -2.1198   -2.5279 C   0  0  0  0  0  0
   -3.8744   -1.3198   -1.5805 C   0  0  0  0  0  0
   -4.5567   -0.8753   -0.4256 C   0  0  0  0  0  0
   -3.9005   -0.0267    0.5735 C   0  0  0  0  0  0
   -2.5565    0.3850    0.4257 C   0  0  0  0  0  0
   -1.9306    1.1853    1.3631 C   0  0  0  0  0  0
   -2.6374    1.6070    2.4964 C   0  0  0  0  0  0
   -3.9532    1.2185    2.6650 C   0  0  0  0  0  0
   -4.6177    0.4012    1.7229 C   0  0  0  0  0  0
   -9.7349   -1.0955    2.4005 H   0  0  0  0  0  0
   -8.6171    0.3518    4.1049 H   0  0  0  0  0  0
   -6.2982    1.0273    3.7941 H   0  0  0  0  0  0
   -8.5040   -1.8277    0.4314 H   0  0  0  0  0  0
   -7.5390   -2.4022   -1.1159 H   0  0  0  0  0  0
   -6.3110   -3.1364   -3.0863 H   0  0  0  0  0  0
   -3.9301   -2.4432   -3.4036 H   0  0  0  0  0  0
   -2.8425   -1.0337   -1.7423 H   0  0  0  0  0  0
   -1.9873    0.0730   -0.4411 H   0  0  0  0  0  0
   -0.8965    1.4832    1.2182 H   0  0  0  0  0  0
   -2.1582    2.2358    3.2409 H   0  0  0  0  0  0
   -4.4765    1.5587    3.5501 H   0  0  0  0  0  0
  1  6  1  0  0  0
  1  2  2  0  0  0
  1 19  1  0  0  0
  2  3  1  0  0  0
  2 20  1  0  0  0
  3  4  2  0  0  0
  3 21  1  0  0  0
  4 18  1  0  0  0
  4  5  1  0  0  0
  5  6  2  0  0  0
  5  7  1  0  0  0
  6 22  1  0  0  0
  7 12  1  0  0  0
  7  8  2  0  0  0
  8  9  1  0  0  0
  8 23  1  0  0  0
  9 10  2  0  0  0
  9 24  1  0  0  0
 10 11  1  0  0  0
 10 25  1  0  0  0
 11 12  2  0  0  0
 11 26  1  0  0  0
 12 13  1  0  0  0
 13 18  1  0  0  0
 13 14  2  0  0  0
 14 15  1  0  0  0
 14 27  1  0  0  0
 15 16  2  0  0  0
 15 28  1  0  0  0
 16 17  1  0  0  0
 16 29  1  0  0  0
 17 18  2  0  0  0
 17 30  1  0  0  0
M  END
>  <i_m_Spin_multiplicity> (1)
1

>  <s_j_Task> (1)
Single Point

>  <s_j_QM_Method> (1)
DFT(b3lyp-d3)

>  <s_j_QM_Basis> (1)
cc-pvtz(-f)

>  <i_j_Number_of_canonical_orbitals> (1)
506

>  <i_j_Geometry_convergence_category> (1)
0

>  <r_j_Gas_Phase_Energy> (1)
-693.407371048055

>  <r_j_Final_Energy> (1)
-693.407371048055

>  <r_j_HOMO> (1)
-0.23104705777108

>  <r_j_LUMO> (1)
-0.0542562438406237

>  <r_j_Polarizability> (1)
210.987838098889

>  <r_j_QM_Dipole_(debye)> (1)
0.000499056660943618

>  <r_j_QM_Dipole_X_(debye)> (1)
0.00011186870207373

>  <r_j_QM_Dipole_Y_(debye)> (1)
0.000453081210809623

>  <r_j_QM_Dipole_Z_(debye)> (1)
0.000176805997465636

>  <r_j_Lowest_Frequency_(cm-1)> (1)
85.8122572996491

>  <r_j_Highest_Frequency_(cm-1)> (1)
3176.8275330918

>  <r_j_2nd_Lowest_Frequency_(cm-1)> (1)
86.202009634074

>  <i_j_Num_Negative_Frequencies> (1)
0

>  <r_j_Zero_Point_Energy_(kcal/mol)> (1)
150.924675951726

>  <r_j_Entropy_(cal/mol/K)_298.15K_1.00E+00atm> (1)
106.355305397933

>  <r_j_Enthalpy_(kcal/mol)_298.15K_1.00E+00atm> (1)
8.03678023864

>  <r_j_Free_Energy_(kcal/mol)_298.15K_1.00E+00atm> (1)
-23.6730540657537

>  <r_j_Internal_Energy_(kcal/mol)_298.15K_1.00E+00atm> (1)
7.44429464981272

>  <r_j_Heat_Capacity_(cal/mol/K)_298.15K_1.00E+00atm> (1)
51.6152813424589

>  <r_j_ln(Q)_298.15K_1.00E+00atm> (1)
39.9554934536223

>  <r_j_Total_Internal_Energy_(au)_298.15K_1.00E+00atm> (1)
-693.154994027193

>  <r_j_Total_Enthalpy_(au)_298.15K_1.00E+00atm> (1)
-693.154049841301

>  <r_j_Total_Free_Energy_(au)_298.15K_1.00E+00atm> (1)
-693.204582679163

>  <r_lp_tautomer_probability> (1)
1

>  <r_epik_Ionization_Penalty> (1)
  0.0000

>  <r_epik_Ionization_Penalty_Charging> (1)
  0.0000

>  <r_epik_Ionization_Penalty_Neutral> (1)
  0.0000

>  <r_epik_State_Penalty> (1)
  0.0000

>  <r_epik_Charging_Adjusted_Penalty> (1)
0

>  <i_epik_Tot_Q> (1)
0

>  <i_epik_Tot_abs_Q> (1)
0

>  <s_lp_Force_Field> (1)
S-OPLS

>  <r_lp_Energy> (1)
47.996401

>  <b_lp_Chiralities_Consistent> (1)
1

$$$$
