9171_Chrysene
                    3D
 Schrodinger Suite 2021-3.
 30 33  0  0  1  0            999 V2000
    2.4495    5.2625    0.0073 C   0  0  0  0  0  0
    1.2347    5.9762    0.0221 C   0  0  0  0  0  0
    0.0281    5.3061    0.0296 C   0  0  0  0  0  0
   -0.0323    3.8894    0.0228 C   0  0  0  0  0  0
    1.2027    3.1754    0.0075 C   0  0  0  0  0  0
    2.4279    3.8850    0.0001 C   0  0  0  0  0  0
    1.1799    1.7496    0.0003 C   0  0  0  0  0  0
    0.0038    1.0616    0.0078 C   0  0  0  0  0  0
   -1.2608    1.7314    0.0232 C   0  0  0  0  0  0
   -1.2808    3.1483    0.0308 C   0  0  0  0  0  0
   -2.5453    3.8182    0.0465 C   0  0  0  0  0  0
   -3.7216    3.1304    0.0542 C   0  0  0  0  0  0
   -3.7446    1.7048    0.0469 C   0  0  0  0  0  0
   -4.9705    0.9961    0.0547 C   0  0  0  0  0  0
   -4.9935   -0.3812    0.0475 C   0  0  0  0  0  0
   -3.7791   -1.0956    0.0322 C   0  0  0  0  0  0
   -2.5718   -0.4266    0.0243 C   0  0  0  0  0  0
   -2.5093    0.9905    0.0313 C   0  0  0  0  0  0
    3.3947    5.7972    0.0016 H   0  0  0  0  0  0
    1.2463    7.0622    0.0278 H   0  0  0  0  0  0
   -0.8853    5.8891    0.0411 H   0  0  0  0  0  0
    3.3559    3.3192   -0.0114 H   0  0  0  0  0  0
    2.1258    1.2144   -0.0113 H   0  0  0  0  0  0
    0.0370   -0.0211    0.0018 H   0  0  0  0  0  0
   -2.5787    4.9009    0.0525 H   0  0  0  0  0  0
   -4.6675    3.6655    0.0660 H   0  0  0  0  0  0
   -5.8982    1.5626    0.0665 H   0  0  0  0  0  0
   -5.9392   -0.9150    0.0535 H   0  0  0  0  0  0
   -3.7919   -2.1817    0.0264 H   0  0  0  0  0  0
   -1.6594   -1.0110    0.0125 H   0  0  0  0  0  0
  1  6  1  0  0  0
  1  2  2  0  0  0
  1 19  1  0  0  0
  2  3  1  0  0  0
  2 20  1  0  0  0
  3  4  2  0  0  0
  3 21  1  0  0  0
  4 10  1  0  0  0
  4  5  1  0  0  0
  5  6  2  0  0  0
  5  7  1  0  0  0
  6 22  1  0  0  0
  7  8  2  0  0  0
  7 23  1  0  0  0
  8  9  1  0  0  0
  8 24  1  0  0  0
  9 18  1  0  0  0
  9 10  2  0  0  0
 10 11  1  0  0  0
 11 12  2  0  0  0
 11 25  1  0  0  0
 12 13  1  0  0  0
 12 26  1  0  0  0
 13 18  1  0  0  0
 13 14  2  0  0  0
 14 15  1  0  0  0
 14 27  1  0  0  0
 15 16  2  0  0  0
 15 28  1  0  0  0
 16 17  1  0  0  0
 16 29  1  0  0  0
 17 18  2  0  0  0
 17 30  1  0  0  0
M  END
>  <i_m_Spin_multiplicity> (1)
1

>  <s_j_Task> (1)
Single Point

>  <s_j_QM_Method> (1)
DFT(b3lyp-d3)

>  <s_j_QM_Basis> (1)
cc-pvtz(-f)

>  <i_j_Number_of_canonical_orbitals> (1)
505

>  <i_j_Geometry_convergence_category> (1)
3

>  <r_j_Gas_Phase_Energy> (1)
-693.407770994947

>  <r_j_Final_Energy> (1)
-693.407770994947

>  <r_j_HOMO> (1)
-0.198870157274642

>  <r_j_LUMO> (1)
-0.0448134799963969

>  <r_j_Polarizability> (1)
220.683805438574

>  <r_j_QM_Dipole_(debye)> (1)
0.00151677497734396

>  <r_j_QM_Dipole_X_(debye)> (1)
-0.00074048047106087

>  <r_j_QM_Dipole_Y_(debye)> (1)
0.00130751032301492

>  <r_j_QM_Dipole_Z_(debye)> (1)
0.000206668234336244

>  <r_j_Lowest_Frequency_(cm-1)> (1)
69.5699537317172

>  <r_j_Highest_Frequency_(cm-1)> (1)
3170.59547959103

>  <r_j_2nd_Lowest_Frequency_(cm-1)> (1)
103.781144396352

>  <i_j_Num_Negative_Frequencies> (1)
0

>  <r_j_Zero_Point_Energy_(kcal/mol)> (1)
150.845914688943

>  <r_j_Entropy_(cal/mol/K)_298.15K_1.00E+00atm> (1)
105.68248035348

>  <r_j_Enthalpy_(kcal/mol)_298.15K_1.00E+00atm> (1)
7.98545334084477

>  <r_j_Free_Energy_(kcal/mol)_298.15K_1.00E+00atm> (1)
-23.5237781765452

>  <r_j_Internal_Energy_(kcal/mol)_298.15K_1.00E+00atm> (1)
7.39296775201749

>  <r_j_Heat_Capacity_(cal/mol/K)_298.15K_1.00E+00atm> (1)
51.5932617493951

>  <r_j_ln(Q)_298.15K_1.00E+00atm> (1)
39.7035448965207

>  <r_j_Total_Internal_Energy_(au)_298.15K_1.00E+00atm> (1)
-693.155601282765

>  <r_j_Total_Enthalpy_(au)_298.15K_1.00E+00atm> (1)
-693.154657096873

>  <r_j_Total_Free_Energy_(au)_298.15K_1.00E+00atm> (1)
-693.204870253843

>  <r_lp_tautomer_probability> (1)
1

>  <r_epik_Ionization_Penalty> (1)
  0.0000

>  <r_epik_Ionization_Penalty_Charging> (1)
  0.0000

>  <r_epik_Ionization_Penalty_Neutral> (1)
  0.0000

>  <r_epik_State_Penalty> (1)
  0.0000

>  <r_epik_Charging_Adjusted_Penalty> (1)
0

>  <i_epik_Tot_Q> (1)
0

>  <i_epik_Tot_abs_Q> (1)
0

>  <s_lp_Force_Field> (1)
S-OPLS

>  <r_lp_Energy> (1)
44.1384

>  <b_lp_Chiralities_Consistent> (1)
1

$$$$
