9183_Dibenz(a,h)acridine
                    3D
 Schrodinger Suite 2021-3.
 35 39  0  0  1  0            999 V2000
   -1.2795    1.8022   -0.6734 C   0  0  0  0  0  0
   -0.0879    1.0714   -0.5274 C   0  0  0  0  0  0
    1.1188    1.7288   -0.3632 C   0  0  0  0  0  0
    1.1872    3.1394   -0.3379 C   0  0  0  0  0  0
   -0.0222    3.8757   -0.4861 C   0  0  0  0  0  0
   -1.2414    3.1835   -0.6523 C   0  0  0  0  0  0
    0.0123    5.3140   -0.4648 C   0  0  0  0  0  0
    1.1745    5.9973   -0.3059 C   0  0  0  0  0  0
    2.4242    5.3048   -0.1517 C   0  0  0  0  0  0
    2.4371    3.8693   -0.1673 C   0  0  0  0  0  0
    3.6811    3.2560   -0.0134 C   0  0  0  0  0  0
    4.8411    4.0167    0.1469 C   0  0  0  0  0  0
    6.1354    3.4154    0.3081 C   0  0  0  0  0  0
    7.2456    4.1819    0.4631 C   0  0  0  0  0  0
    7.1678    5.6189    0.4716 C   0  0  0  0  0  0
    8.3243    6.4118    0.6337 C   0  0  0  0  0  0
    8.2395    7.7919    0.6404 C   0  0  0  0  0  0
    6.9909    8.4213    0.4846 C   0  0  0  0  0  0
    5.8430    7.6651    0.3242 C   0  0  0  0  0  0
    5.9073    6.2580    0.3146 C   0  0  0  0  0  0
    4.7128    5.4423    0.1480 C   0  0  0  0  0  0
    3.5303    6.0504    0.0012 N   0  0  0  0  0  0
   -2.2241    1.2824   -0.8022 H   0  0  0  0  0  0
   -0.1126   -0.0143   -0.5433 H   0  0  0  0  0  0
    2.0226    1.1396   -0.2529 H   0  0  0  0  0  0
   -2.1565    3.7585   -0.7643 H   0  0  0  0  0  0
   -0.9264    5.8497   -0.5804 H   0  0  0  0  0  0
    1.2048    7.0815   -0.2892 H   0  0  0  0  0  0
    3.7718    2.1742   -0.0151 H   0  0  0  0  0  0
    6.2061    2.3307    0.3033 H   0  0  0  0  0  0
    8.2209    3.7179    0.5845 H   0  0  0  0  0  0
    9.2858    5.9189    0.7535 H   0  0  0  0  0  0
    9.1369    8.3908    0.7662 H   0  0  0  0  0  0
    6.9281    9.5054    0.4904 H   0  0  0  0  0  0
    4.8725    8.1327    0.2028 H   0  0  0  0  0  0
  1  6  1  0  0  0
  1  2  2  0  0  0
  1 23  1  0  0  0
  2  3  1  0  0  0
  2 24  1  0  0  0
  3  4  2  0  0  0
  3 25  1  0  0  0
  4 10  1  0  0  0
  4  5  1  0  0  0
  5  6  2  0  0  0
  5  7  1  0  0  0
  6 26  1  0  0  0
  7  8  2  0  0  0
  7 27  1  0  0  0
  8  9  1  0  0  0
  8 28  1  0  0  0
  9 22  1  0  0  0
  9 10  2  0  0  0
 10 11  1  0  0  0
 11 12  2  0  0  0
 11 29  1  0  0  0
 12 21  1  0  0  0
 12 13  1  0  0  0
 13 14  2  0  0  0
 13 30  1  0  0  0
 14 15  1  0  0  0
 14 31  1  0  0  0
 15 20  1  0  0  0
 15 16  2  0  0  0
 16 17  1  0  0  0
 16 32  1  0  0  0
 17 18  2  0  0  0
 17 33  1  0  0  0
 18 19  1  0  0  0
 18 34  1  0  0  0
 19 20  2  0  0  0
 19 35  1  0  0  0
 20 21  1  0  0  0
 21 22  2  0  0  0
M  END
>  <i_m_Spin_multiplicity> (1)
1

>  <s_j_Task> (1)
Single Point

>  <s_j_QM_Method> (1)
DFT(b3lyp-d3)

>  <s_j_QM_Basis> (1)
cc-pvtz(-f)

>  <i_j_Number_of_canonical_orbitals> (1)
604

>  <i_j_Geometry_convergence_category> (1)
0

>  <r_j_Gas_Phase_Energy> (1)
-863.147251318034

>  <r_j_Final_Energy> (1)
-863.147251318034

>  <r_j_HOMO> (1)
-0.190015746903005

>  <r_j_LUMO> (1)
-0.0504674532693754

>  <r_j_Polarizability> (1)
283.510570212288

>  <r_j_QM_Dipole_(debye)> (1)
1.60252848818005

>  <r_j_QM_Dipole_X_(debye)> (1)
-0.084408674797095

>  <r_j_QM_Dipole_Y_(debye)> (1)
-1.60004654353312

>  <r_j_QM_Dipole_Z_(debye)> (1)
-0.0287017347094723

>  <r_j_Lowest_Frequency_(cm-1)> (1)
55.8124632834664

>  <r_j_Highest_Frequency_(cm-1)> (1)
3165.42698607269

>  <r_j_2nd_Lowest_Frequency_(cm-1)> (1)
88.046826545889

>  <i_j_Num_Negative_Frequencies> (1)
0

>  <r_j_Zero_Point_Energy_(kcal/mol)> (1)
172.492085136724

>  <r_j_Entropy_(cal/mol/K)_298.15K_1.00E+00atm> (1)
116.505229091576

>  <r_j_Enthalpy_(kcal/mol)_298.15K_1.00E+00atm> (1)
9.49330512613225

>  <r_j_Free_Energy_(kcal/mol)_298.15K_1.00E+00atm> (1)
-25.2427289275211

>  <r_j_Internal_Energy_(kcal/mol)_298.15K_1.00E+00atm> (1)
8.90081953730497

>  <r_j_Heat_Capacity_(cal/mol/K)_298.15K_1.00E+00atm> (1)
62.2722354492981

>  <r_j_ln(Q)_298.15K_1.00E+00atm> (1)
42.6047981647704

>  <r_j_Total_Internal_Energy_(au)_298.15K_1.00E+00atm> (1)
-862.858183322496

>  <r_j_Total_Enthalpy_(au)_298.15K_1.00E+00atm> (1)
-862.857239136604

>  <r_j_Total_Free_Energy_(au)_298.15K_1.00E+00atm> (1)
-862.912594530768

>  <r_epik_Ionization_Penalty> (1)
  0.0103

>  <r_epik_Ionization_Penalty_Charging> (1)
  0.0000

>  <r_epik_Ionization_Penalty_Neutral> (1)
  0.0103

>  <r_epik_State_Penalty> (1)
  0.0079

>  <r_epik_Charging_Adjusted_Penalty> (1)
0.00787040628060371

>  <i_epik_Tot_Q> (1)
0

>  <i_epik_Tot_abs_Q> (1)
0

>  <s_lp_Force_Field> (1)
S-OPLS

>  <r_lp_Energy> (1)
50.77077

>  <b_lp_Chiralities_Consistent> (1)
1

$$$$
