9195_Benzo[a]fluorene
                    3D
 Schrodinger Suite 2021-3.
 29 32  0  0  1  0            999 V2000
   -0.6473    1.6139   -0.2685 C   0  0  0  0  0  0
   -1.9261    0.9599   -0.7516 C   0  0  0  0  0  0
   -3.1024    1.5366   -1.2106 C   0  0  0  0  0  0
   -4.1556    0.7024   -1.6052 C   0  0  0  0  0  0
   -4.0270   -0.6885   -1.5389 C   0  0  0  0  0  0
   -2.8460   -1.2728   -1.0779 C   0  0  0  0  0  0
   -1.7964   -0.4421   -0.6846 C   0  0  0  0  0  0
   -0.4616   -0.7602   -0.1678 C   0  0  0  0  0  0
    0.2221    0.4245    0.0804 C   0  0  0  0  0  0
    1.5430    0.4134    0.5879 C   0  0  0  0  0  0
    2.2857    1.5934    0.8588 C   0  0  0  0  0  0
    3.5686    1.5211    1.3524 C   0  0  0  0  0  0
    4.1716    0.2645    1.5993 C   0  0  0  0  0  0
    3.4784   -0.8980    1.3472 C   0  0  0  0  0  0
    2.1543   -0.8633    0.8382 C   0  0  0  0  0  0
    1.4244   -2.0563    0.5724 C   0  0  0  0  0  0
    0.1418   -2.0160    0.0794 C   0  0  0  0  0  0
   -0.8210    2.2646    0.5990 H   0  0  0  0  0  0
   -0.1902    2.2439   -1.0432 H   0  0  0  0  0  0
   -3.2083    2.6169   -1.2644 H   0  0  0  0  0  0
   -5.0820    1.1392   -1.9666 H   0  0  0  0  0  0
   -4.8545   -1.3201   -1.8494 H   0  0  0  0  0  0
   -2.7475   -2.3533   -1.0269 H   0  0  0  0  0  0
    1.8259    2.5594    0.6705 H   0  0  0  0  0  0
    4.1250    2.4316    1.5550 H   0  0  0  0  0  0
    5.1844    0.2207    1.9889 H   0  0  0  0  0  0
    3.9399   -1.8641    1.5362 H   0  0  0  0  0  0
    1.9055   -3.0108    0.7687 H   0  0  0  0  0  0
   -0.4033   -2.9343   -0.1188 H   0  0  0  0  0  0
  1  9  1  0  0  0
  1  2  1  0  0  0
  1 18  1  0  0  0
  1 19  1  0  0  0
  2  7  1  0  0  0
  2  3  2  0  0  0
  3  4  1  0  0  0
  3 20  1  0  0  0
  4  5  2  0  0  0
  4 21  1  0  0  0
  5  6  1  0  0  0
  5 22  1  0  0  0
  6  7  2  0  0  0
  6 23  1  0  0  0
  7  8  1  0  0  0
  8 17  1  0  0  0
  8  9  2  0  0  0
  9 10  1  0  0  0
 10 15  1  0  0  0
 10 11  2  0  0  0
 11 12  1  0  0  0
 11 24  1  0  0  0
 12 13  2  0  0  0
 12 25  1  0  0  0
 13 14  1  0  0  0
 13 26  1  0  0  0
 14 15  2  0  0  0
 14 27  1  0  0  0
 15 16  1  0  0  0
 16 17  2  0  0  0
 16 28  1  0  0  0
 17 29  1  0  0  0
M  END
>  <i_m_Spin_multiplicity> (1)
1

>  <s_j_Task> (1)
Single Point

>  <s_j_QM_Method> (1)
DFT(b3lyp-d3)

>  <s_j_QM_Basis> (1)
cc-pvtz(-f)

>  <i_j_Number_of_canonical_orbitals> (1)
482

>  <i_j_Geometry_convergence_category> (1)
3

>  <r_j_Gas_Phase_Energy> (1)
-655.280584361902

>  <r_j_Final_Energy> (1)
-655.280584361902

>  <r_j_HOMO> (1)
-0.210328645780388

>  <r_j_LUMO> (1)
-0.055691522347755

>  <r_j_Polarizability> (1)
201.965692519354

>  <r_j_QM_Dipole_(debye)> (1)
0.459613449687942

>  <r_j_QM_Dipole_X_(debye)> (1)
0.183994389352283

>  <r_j_QM_Dipole_Y_(debye)> (1)
0.416149455250205

>  <r_j_QM_Dipole_Z_(debye)> (1)
0.064886198192592

>  <r_j_Lowest_Frequency_(cm-1)> (1)
81.5319891366562

>  <r_j_Highest_Frequency_(cm-1)> (1)
3146.86914879098

>  <r_j_2nd_Lowest_Frequency_(cm-1)> (1)
124.501066499164

>  <i_j_Num_Negative_Frequencies> (1)
0

>  <r_j_Zero_Point_Energy_(kcal/mol)> (1)
146.532814572781

>  <r_j_Entropy_(cal/mol/K)_298.15K_1.00E+00atm> (1)
103.352451888775

>  <r_j_Enthalpy_(kcal/mol)_298.15K_1.00E+00atm> (1)
7.67585437536109

>  <r_j_Free_Energy_(kcal/mol)_298.15K_1.00E+00atm> (1)
-23.1386791552773

>  <r_j_Internal_Energy_(kcal/mol)_298.15K_1.00E+00atm> (1)
7.08336878653381

>  <r_j_Heat_Capacity_(cal/mol/K)_298.15K_1.00E+00atm> (1)
49.2323359420059

>  <r_j_ln(Q)_298.15K_1.00E+00atm> (1)
39.0535729334386

>  <r_j_Total_Internal_Energy_(au)_298.15K_1.00E+00atm> (1)
-655.03578138967

>  <r_j_Total_Enthalpy_(au)_298.15K_1.00E+00atm> (1)
-655.034837203778

>  <r_j_Total_Free_Energy_(au)_298.15K_1.00E+00atm> (1)
-655.083943289031

>  <r_lp_tautomer_probability> (1)
1

>  <r_epik_Ionization_Penalty> (1)
  0.0000

>  <r_epik_Ionization_Penalty_Charging> (1)
  0.0000

>  <r_epik_Ionization_Penalty_Neutral> (1)
  0.0000

>  <r_epik_State_Penalty> (1)
  0.0000

>  <r_epik_Charging_Adjusted_Penalty> (1)
0

>  <i_epik_Tot_Q> (1)
0

>  <i_epik_Tot_abs_Q> (1)
0

>  <s_lp_Force_Field> (1)
S-OPLS

>  <r_lp_Energy> (1)
23.0017

>  <b_lp_Chiralities_Consistent> (1)
1

$$$$
