9203_Benzonaphthothiophene
                    3D
 Schrodinger Suite 2021-3.
 27 30  0  0  1  0            999 V2000
    1.2048   10.0230    0.0417 C   0  0  0  0  0  0
   -0.1608   10.4043    0.0559 C   0  0  0  0  0  0
   -1.1491    9.4489    0.0599 C   0  0  0  0  0  0
   -0.8276    8.0640    0.0499 C   0  0  0  0  0  0
   -1.8334    7.0655    0.0538 C   0  0  0  0  0  0
   -1.4697    5.7389    0.0439 C   0  0  0  0  0  0
   -0.0966    5.3365    0.0295 C   0  0  0  0  0  0
    0.8910    6.3030    0.0255 C   0  0  0  0  0  0
    0.5577    7.6765    0.0355 C   0  0  0  0  0  0
    1.5525    8.6936    0.0318 C   0  0  0  0  0  0
    0.0461    3.8884    0.0208 C   0  0  0  0  0  0
    1.2217    3.1276    0.0063 C   0  0  0  0  0  0
    1.1471    1.7390    0.0000 C   0  0  0  0  0  0
   -0.0985    1.0962    0.0081 C   0  0  0  0  0  0
   -1.2816    1.8329    0.0225 C   0  0  0  0  0  0
   -1.1998    3.2253    0.0288 C   0  0  0  0  0  0
   -2.5714    4.3496    0.0468 S   0  0  0  0  0  0
    1.9758   10.7879    0.0387 H   0  0  0  0  0  0
   -0.4239   11.4580    0.0637 H   0  0  0  0  0  0
   -2.1957    9.7409    0.0707 H   0  0  0  0  0  0
   -2.8781    7.3619    0.0647 H   0  0  0  0  0  0
    1.9386    6.0152    0.0146 H   0  0  0  0  0  0
    2.5987    8.3989    0.0209 H   0  0  0  0  0  0
    2.1874    3.6241    0.0000 H   0  0  0  0  0  0
    2.0586    1.1494   -0.0113 H   0  0  0  0  0  0
   -0.1455    0.0113    0.0031 H   0  0  0  0  0  0
   -2.2449    1.3331    0.0288 H   0  0  0  0  0  0
  1 10  1  0  0  0
  1  2  2  0  0  0
  1 18  1  0  0  0
  2  3  1  0  0  0
  2 19  1  0  0  0
  3  4  2  0  0  0
  3 20  1  0  0  0
  4  9  1  0  0  0
  4  5  1  0  0  0
  5  6  2  0  0  0
  5 21  1  0  0  0
  6 17  1  0  0  0
  6  7  1  0  0  0
  7  8  2  0  0  0
  7 11  1  0  0  0
  8  9  1  0  0  0
  8 22  1  0  0  0
  9 10  2  0  0  0
 10 23  1  0  0  0
 11 16  1  0  0  0
 11 12  2  0  0  0
 12 13  1  0  0  0
 12 24  1  0  0  0
 13 14  2  0  0  0
 13 25  1  0  0  0
 14 15  1  0  0  0
 14 26  1  0  0  0
 15 16  2  0  0  0
 15 27  1  0  0  0
 16 17  1  0  0  0
M  END
>  <i_m_Spin_multiplicity> (1)
1

>  <s_j_Task> (1)
Single Point

>  <s_j_QM_Method> (1)
DFT(b3lyp-d3)

>  <s_j_QM_Basis> (1)
cc-pvtz(-f)

>  <i_j_Number_of_canonical_orbitals> (1)
471

>  <i_j_Geometry_convergence_category> (1)
0

>  <r_j_Gas_Phase_Energy> (1)
-1014.1831979203

>  <r_j_Final_Energy> (1)
-1014.1831979203

>  <r_j_HOMO> (1)
-0.17343891140564

>  <r_j_LUMO> (1)
-0.0314513593946392

>  <r_j_Polarizability> (1)
216.184484011295

>  <r_j_QM_Dipole_(debye)> (1)
0.850696137315699

>  <r_j_QM_Dipole_X_(debye)> (1)
0.848499260053908

>  <r_j_QM_Dipole_Y_(debye)> (1)
-0.0605803697140251

>  <r_j_QM_Dipole_Z_(debye)> (1)
-0.00793363328709367

>  <r_j_Lowest_Frequency_(cm-1)> (1)
84.4280780957906

>  <r_j_Highest_Frequency_(cm-1)> (1)
3153.58973843316

>  <r_j_2nd_Lowest_Frequency_(cm-1)> (1)
110.23011152748

>  <i_j_Num_Negative_Frequencies> (1)
0

>  <r_j_Zero_Point_Energy_(kcal/mol)> (1)
129.877821876707

>  <r_j_Entropy_(cal/mol/K)_298.15K_1.00E+00atm> (1)
105.11028922235

>  <r_j_Enthalpy_(kcal/mol)_298.15K_1.00E+00atm> (1)
7.83475007846742

>  <r_j_Free_Energy_(kcal/mol)_298.15K_1.00E+00atm> (1)
-23.5038826531762

>  <r_j_Internal_Energy_(kcal/mol)_298.15K_1.00E+00atm> (1)
7.24226448964014

>  <r_j_Heat_Capacity_(cal/mol/K)_298.15K_1.00E+00atm> (1)
49.5218838495424

>  <r_j_ln(Q)_298.15K_1.00E+00atm> (1)
39.6699651373769

>  <r_j_Total_Internal_Energy_(au)_298.15K_1.00E+00atm> (1)
-1013.96468315212

>  <r_j_Total_Enthalpy_(au)_298.15K_1.00E+00atm> (1)
-1013.96373896623

>  <r_j_Total_Free_Energy_(au)_298.15K_1.00E+00atm> (1)
-1014.01368025673

>  <r_lp_tautomer_probability> (1)
1

>  <r_epik_Ionization_Penalty> (1)
  0.0000

>  <r_epik_Ionization_Penalty_Charging> (1)
  0.0000

>  <r_epik_Ionization_Penalty_Neutral> (1)
  0.0000

>  <r_epik_State_Penalty> (1)
  0.0000

>  <r_epik_Charging_Adjusted_Penalty> (1)
0

>  <i_epik_Tot_Q> (1)
0

>  <i_epik_Tot_abs_Q> (1)
0

>  <s_lp_Force_Field> (1)
S-OPLS

>  <r_lp_Energy> (1)
28.1607

>  <b_lp_Chiralities_Consistent> (1)
1

$$$$
