9215_Acridine
                    3D
 Schrodinger Suite 2021-3.
 23 25  0  0  1  0            999 V2000
    0.0586   -2.7816   -0.1161 C   0  0  0  0  0  0
   -1.1759   -2.0683   -0.0953 C   0  0  0  0  0  0
   -2.3710   -2.7316   -0.1779 C   0  0  0  0  0  0
   -2.4092   -4.1562   -0.2868 C   0  0  0  0  0  0
   -1.1563   -4.8761   -0.3076 C   0  0  0  0  0  0
    0.0676   -4.1466   -0.2193 C   0  0  0  0  0  0
   -1.2102   -6.2678   -0.4143 C   0  0  0  0  0  0
   -2.4440   -6.9176   -0.4967 C   0  0  0  0  0  0
   -2.5743   -8.3350   -0.6074 C   0  0  0  0  0  0
   -3.8111   -8.9165   -0.6848 C   0  0  0  0  0  0
   -4.9886   -8.1128   -0.6557 C   0  0  0  0  0  0
   -4.9056   -6.7501   -0.5503 C   0  0  0  0  0  0
   -3.6354   -6.1003   -0.4669 C   0  0  0  0  0  0
   -3.6053   -4.7617   -0.3648 N   0  0  0  0  0  0
    0.9934   -2.2329   -0.0493 H   0  0  0  0  0  0
   -1.1614   -0.9854   -0.0128 H   0  0  0  0  0  0
   -3.3203   -2.2065   -0.1637 H   0  0  0  0  0  0
    1.0049   -4.6969   -0.2358 H   0  0  0  0  0  0
   -0.2892   -6.8471   -0.4332 H   0  0  0  0  0  0
   -1.6723   -8.9414   -0.6289 H   0  0  0  0  0  0
   -3.9029   -9.9952   -0.7691 H   0  0  0  0  0  0
   -5.9606   -8.5936   -0.7184 H   0  0  0  0  0  0
   -5.7899   -6.1218   -0.5265 H   0  0  0  0  0  0
  1  6  1  0  0  0
  1  2  2  0  0  0
  1 15  1  0  0  0
  2  3  1  0  0  0
  2 16  1  0  0  0
  3  4  2  0  0  0
  3 17  1  0  0  0
  4 14  1  0  0  0
  4  5  1  0  0  0
  5  6  2  0  0  0
  5  7  1  0  0  0
  6 18  1  0  0  0
  7  8  2  0  0  0
  7 19  1  0  0  0
  8 13  1  0  0  0
  8  9  1  0  0  0
  9 10  2  0  0  0
  9 20  1  0  0  0
 10 11  1  0  0  0
 10 21  1  0  0  0
 11 12  2  0  0  0
 11 22  1  0  0  0
 12 13  1  0  0  0
 12 23  1  0  0  0
 13 14  2  0  0  0
M  END
>  <i_m_Spin_multiplicity> (1)
1

>  <s_j_Task> (1)
Single Point

>  <s_j_QM_Method> (1)
DFT(b3lyp-d3)

>  <s_j_QM_Basis> (1)
cc-pvtz(-f)

>  <i_j_Number_of_canonical_orbitals> (1)
393

>  <i_j_Geometry_convergence_category> (1)
0

>  <r_j_Gas_Phase_Energy> (1)
-555.750485271058

>  <r_j_Final_Energy> (1)
-555.750485271058

>  <r_j_HOMO> (1)
-0.247549433447475

>  <r_j_LUMO> (1)
-0.113933886263787

>  <r_j_Polarizability> (1)
166.355612314247

>  <r_j_QM_Dipole_(debye)> (1)
1.88602936113399

>  <r_j_QM_Dipole_X_(debye)> (1)
1.59648955945015

>  <r_j_QM_Dipole_Y_(debye)> (1)
-1.00361962065782

>  <r_j_QM_Dipole_Z_(debye)> (1)
-0.0327947351993332

>  <r_j_Lowest_Frequency_(cm-1)> (1)
110.46756344797

>  <r_j_Highest_Frequency_(cm-1)> (1)
3157.48335189894

>  <r_j_2nd_Lowest_Frequency_(cm-1)> (1)
132.820894748004

>  <i_j_Num_Negative_Frequencies> (1)
0

>  <r_j_Zero_Point_Energy_(kcal/mol)> (1)
113.67480896132

>  <r_j_Entropy_(cal/mol/K)_298.15K_1.00E+00atm> (1)
93.5099254724379

>  <r_j_Enthalpy_(kcal/mol)_298.15K_1.00E+00atm> (1)
6.30959223207296

>  <r_j_Free_Energy_(kcal/mol)_298.15K_1.00E+00atm> (1)
-21.5703920475344

>  <r_j_Internal_Energy_(kcal/mol)_298.15K_1.00E+00atm> (1)
5.71710664324569

>  <r_j_Heat_Capacity_(cal/mol/K)_298.15K_1.00E+00atm> (1)
39.3598394999861

>  <r_j_ln(Q)_298.15K_1.00E+00atm> (1)
36.4066104801458

>  <r_j_Total_Internal_Energy_(au)_298.15K_1.00E+00atm> (1)
-555.560222141476

>  <r_j_Total_Enthalpy_(au)_298.15K_1.00E+00atm> (1)
-555.559277955584

>  <r_j_Total_Free_Energy_(au)_298.15K_1.00E+00atm> (1)
-555.603707538901

>  <r_epik_Ionization_Penalty> (1)
  0.0281

>  <r_epik_Ionization_Penalty_Charging> (1)
  0.0000

>  <r_epik_Ionization_Penalty_Neutral> (1)
  0.0281

>  <r_epik_State_Penalty> (1)
  0.0230

>  <r_epik_Charging_Adjusted_Penalty> (1)
0.0230181730507607

>  <i_epik_Tot_Q> (1)
0

>  <i_epik_Tot_abs_Q> (1)
0

>  <s_lp_Force_Field> (1)
S-OPLS

>  <r_lp_Energy> (1)
27.353707

>  <b_lp_Chiralities_Consistent> (1)
1

$$$$
