92629_Propylene glycol t-butyl ether
                    3D
 Schrodinger Suite 2021-3.
 25 24  0  0  1  0            999 V2000
   -0.7568    1.3994   -0.0190 C   0  0  0  0  0  0
   -0.0963    0.0290   -0.0431 C   0  0  0  0  0  0
    1.3939    0.1029    0.2862 C   0  0  0  0  0  0
    1.8922   -1.2241    0.1585 O   0  0  0  0  0  0
    3.3161   -1.4142    0.0033 C   0  0  0  0  0  0
    4.0837   -0.7219    1.1373 C   0  0  0  0  0  0
    3.7758   -0.9072   -1.3719 C   0  0  0  0  0  0
    3.4842   -2.9329    0.0923 C   0  0  0  0  0  0
   -0.2679   -0.5158   -1.3454 O   0  0  0  0  0  0
   -0.6801    1.8557    0.9733 H   0  0  0  0  0  0
   -1.8143    1.3078   -0.2793 H   0  0  0  0  0  0
   -0.2829    2.0607   -0.7517 H   0  0  0  0  0  0
   -0.5717   -0.6235    0.7100 H   0  0  0  0  0  0
    1.8775    0.7878   -0.4241 H   0  0  0  0  0  0
    1.5483    0.4916    1.3036 H   0  0  0  0  0  0
    5.1468   -0.9762    1.0859 H   0  0  0  0  0  0
    3.6964   -1.0463    2.1081 H   0  0  0  0  0  0
    3.9992    0.3673    1.0766 H   0  0  0  0  0  0
    3.6794    0.1786   -1.4608 H   0  0  0  0  0  0
    3.1766   -1.3701   -2.1618 H   0  0  0  0  0  0
    4.8274   -1.1601   -1.5398 H   0  0  0  0  0  0
    4.5339   -3.2161   -0.0291 H   0  0  0  0  0  0
    2.8980   -3.4228   -0.6908 H   0  0  0  0  0  0
    3.1304   -3.2957    1.0614 H   0  0  0  0  0  0
    0.3181   -1.2876   -1.3724 H   0  0  0  0  0  0
  1  2  1  0  0  0
  1 10  1  0  0  0
  1 11  1  0  0  0
  1 12  1  0  0  0
  2  3  1  0  0  0
  2  9  1  0  0  0
  2 13  1  0  0  0
  3  4  1  0  0  0
  3 14  1  0  0  0
  3 15  1  0  0  0
  4  5  1  0  0  0
  5  6  1  0  0  0
  5  7  1  0  0  0
  5  8  1  0  0  0
  6 16  1  0  0  0
  6 17  1  0  0  0
  6 18  1  0  0  0
  7 19  1  0  0  0
  7 20  1  0  0  0
  7 21  1  0  0  0
  8 22  1  0  0  0
  8 23  1  0  0  0
  8 24  1  0  0  0
  9 25  1  0  0  0
M  END
>  <i_m_Spin_multiplicity> (1)
1

>  <s_j_Task> (1)
Single Point

>  <s_j_QM_Method> (1)
DFT(b3lyp-d3)

>  <s_j_QM_Basis> (1)
cc-pvtz(-f)

>  <i_j_Number_of_canonical_orbitals> (1)
350

>  <i_j_Geometry_convergence_category> (1)
3

>  <r_j_Gas_Phase_Energy> (1)
-427.002770292355

>  <r_j_Final_Energy> (1)
-427.002770292355

>  <r_j_HOMO> (1)
-0.264777096897588

>  <r_j_LUMO> (1)
0.016141446235726

>  <r_j_Polarizability> (1)
95.1038634966169

>  <r_j_QM_Dipole_(debye)> (1)
2.39068493330852

>  <r_j_QM_Dipole_X_(debye)> (1)
2.09564411922362

>  <r_j_QM_Dipole_Y_(debye)> (1)
0.247059925889528

>  <r_j_QM_Dipole_Z_(debye)> (1)
1.12365989913822

>  <r_j_Lowest_Frequency_(cm-1)> (1)
64.8327535387819

>  <r_j_Highest_Frequency_(cm-1)> (1)
3713.55106668423

>  <r_j_2nd_Lowest_Frequency_(cm-1)> (1)
81.6845620246712

>  <i_j_Num_Negative_Frequencies> (1)
0

>  <r_j_Zero_Point_Energy_(kcal/mol)> (1)
141.370071462652

>  <r_j_Entropy_(cal/mol/K)_298.15K_1.00E+00atm> (1)
98.5394878887815

>  <r_j_Enthalpy_(kcal/mol)_298.15K_1.00E+00atm> (1)
7.39129845530627

>  <r_j_Free_Energy_(kcal/mol)_298.15K_1.00E+00atm> (1)
-21.9882498587339

>  <r_j_Internal_Energy_(kcal/mol)_298.15K_1.00E+00atm> (1)
6.79881286647899

>  <r_j_Heat_Capacity_(cal/mol/K)_298.15K_1.00E+00atm> (1)
42.084092329314

>  <r_j_ln(Q)_298.15K_1.00E+00atm> (1)
37.1118728849692

>  <r_j_Total_Internal_Energy_(au)_298.15K_1.00E+00atm> (1)
-426.766648143746

>  <r_j_Total_Enthalpy_(au)_298.15K_1.00E+00atm> (1)
-426.765703957854

>  <r_j_Total_Free_Energy_(au)_298.15K_1.00E+00atm> (1)
-426.812523248587

>  <r_lp_tautomer_probability> (1)
1

>  <r_epik_Ionization_Penalty> (1)
  0.0000

>  <r_epik_Ionization_Penalty_Charging> (1)
  0.0000

>  <r_epik_Ionization_Penalty_Neutral> (1)
  0.0000

>  <r_epik_State_Penalty> (1)
  0.0000

>  <r_epik_Charging_Adjusted_Penalty> (1)
0

>  <i_epik_Tot_Q> (1)
0

>  <i_epik_Tot_abs_Q> (1)
0

>  <s_lp_Force_Field> (1)
S-OPLS

>  <r_lp_Energy> (1)
-0.805792

>  <b_lp_Chiralities_Consistent> (1)
1

$$$$
