92723_2,2,3,3-tetramethylpentane
                    3D
 Schrodinger Suite 2021-3.
 29 28  0  0  1  0            999 V2000
   -0.6981    1.4855   -0.0468 C   0  0  0  0  0  0
   -0.0262    0.1269    0.1964 C   0  0  0  0  0  0
    1.5208    0.0766    0.0179 C   0  0  0  0  0  0
    1.9096    0.7949   -1.2935 C   0  0  0  0  0  0
    2.1771    0.8453    1.1870 C   0  0  0  0  0  0
    2.0181   -1.4372   -0.0066 C   0  0  0  0  0  0
    3.5522   -1.5272    0.1613 C   0  0  0  0  0  0
    1.6566   -2.1253   -1.3425 C   0  0  0  0  0  0
    1.3815   -2.2629    1.1346 C   0  0  0  0  0  0
   -1.7654    1.4239    0.1899 H   0  0  0  0  0  0
   -0.6132    1.8045   -1.0896 H   0  0  0  0  0  0
   -0.2729    2.2772    0.5785 H   0  0  0  0  0  0
   -0.2715   -0.1994    1.2134 H   0  0  0  0  0  0
   -0.4922   -0.6026   -0.4765 H   0  0  0  0  0  0
    2.9653    0.6458   -1.5382 H   0  0  0  0  0  0
    1.7522    1.8735   -1.2024 H   0  0  0  0  0  0
    1.3154    0.4475   -2.1438 H   0  0  0  0  0  0
    3.2510    0.9795    1.0310 H   0  0  0  0  0  0
    2.0365    0.3352    2.1450 H   0  0  0  0  0  0
    1.7425    1.8447    1.2829 H   0  0  0  0  0  0
    3.8831   -2.5595    0.0027 H   0  0  0  0  0  0
    3.8718   -1.2343    1.1653 H   0  0  0  0  0  0
    4.0863   -0.9002   -0.5593 H   0  0  0  0  0  0
    2.2248   -1.7132   -2.1812 H   0  0  0  0  0  0
    0.5924   -2.0355   -1.5810 H   0  0  0  0  0  0
    1.8887   -3.1945   -1.2854 H   0  0  0  0  0  0
    1.8459   -3.2543    1.1783 H   0  0  0  0  0  0
    0.3088   -2.4140    0.9862 H   0  0  0  0  0  0
    1.5243   -1.7933    2.1128 H   0  0  0  0  0  0
  1  2  1  0  0  0
  1 10  1  0  0  0
  1 11  1  0  0  0
  1 12  1  0  0  0
  2  3  1  0  0  0
  2 13  1  0  0  0
  2 14  1  0  0  0
  3  4  1  0  0  0
  3  5  1  0  0  0
  3  6  1  0  0  0
  4 15  1  0  0  0
  4 16  1  0  0  0
  4 17  1  0  0  0
  5 18  1  0  0  0
  5 19  1  0  0  0
  5 20  1  0  0  0
  6  7  1  0  0  0
  6  8  1  0  0  0
  6  9  1  0  0  0
  7 21  1  0  0  0
  7 22  1  0  0  0
  7 23  1  0  0  0
  8 24  1  0  0  0
  8 25  1  0  0  0
  8 26  1  0  0  0
  9 27  1  0  0  0
  9 28  1  0  0  0
  9 29  1  0  0  0
M  END
>  <i_m_Spin_multiplicity> (1)
1

>  <s_j_Task> (1)
Single Point

>  <s_j_QM_Method> (1)
DFT(b3lyp-d3)

>  <s_j_QM_Basis> (1)
cc-pvtz(-f)

>  <i_j_Number_of_canonical_orbitals> (1)
383

>  <i_j_Geometry_convergence_category> (1)
3

>  <r_j_Gas_Phase_Energy> (1)
-355.163380598385

>  <r_j_Final_Energy> (1)
-355.163380598385

>  <r_j_HOMO> (1)
-0.299468767707355

>  <r_j_LUMO> (1)
0.0203053307001013

>  <r_j_Polarizability> (1)
108.306148704243

>  <r_j_QM_Dipole_(debye)> (1)
0.0587759186044455

>  <r_j_QM_Dipole_X_(debye)> (1)
-0.0567829737133671

>  <r_j_QM_Dipole_Y_(debye)> (1)
-0.0150825089046215

>  <r_j_QM_Dipole_Z_(debye)> (1)
0.00167941335158446

>  <r_j_Lowest_Frequency_(cm-1)> (1)
121.385832628966

>  <r_j_Highest_Frequency_(cm-1)> (1)
3064.9329598564

>  <r_j_2nd_Lowest_Frequency_(cm-1)> (1)
163.83396442456

>  <i_j_Num_Negative_Frequencies> (1)
0

>  <r_j_Zero_Point_Energy_(kcal/mol)> (1)
171.460757794267

>  <r_j_Entropy_(cal/mol/K)_298.15K_1.00E+00atm> (1)
96.5200725284103

>  <r_j_Enthalpy_(kcal/mol)_298.15K_1.00E+00atm> (1)
7.45298882524498

>  <r_j_Free_Energy_(kcal/mol)_298.15K_1.00E+00atm> (1)
-21.3244707991006

>  <r_j_Internal_Energy_(kcal/mol)_298.15K_1.00E+00atm> (1)
6.8605032364177

>  <r_j_Heat_Capacity_(cal/mol/K)_298.15K_1.00E+00atm> (1)
45.3471247141986

>  <r_j_ln(Q)_298.15K_1.00E+00atm> (1)
35.9915434252312

>  <r_j_Total_Internal_Energy_(au)_298.15K_1.00E+00atm> (1)
-354.879207578604

>  <r_j_Total_Enthalpy_(au)_298.15K_1.00E+00atm> (1)
-354.878263392712

>  <r_j_Total_Free_Energy_(au)_298.15K_1.00E+00atm> (1)
-354.924123194038

>  <r_lp_tautomer_probability> (1)
1

>  <r_epik_Ionization_Penalty> (1)
  0.0000

>  <r_epik_Ionization_Penalty_Charging> (1)
  0.0000

>  <r_epik_Ionization_Penalty_Neutral> (1)
  0.0000

>  <r_epik_State_Penalty> (1)
  0.0000

>  <r_epik_Charging_Adjusted_Penalty> (1)
0

>  <i_epik_Tot_Q> (1)
0

>  <i_epik_Tot_abs_Q> (1)
0

>  <s_lp_Force_Field> (1)
S-OPLS

>  <r_lp_Energy> (1)
16.1764

>  <b_lp_Chiralities_Consistent> (1)
1

$$$$
