93071_5-methyldecane
                    3D
 Schrodinger Suite 2021-3.
 35 34  0  0  1  0            999 V2000
   -4.2072    3.0434    0.0201 C   0  0  0  0  0  0
   -2.6784    2.9937   -0.0547 C   0  0  0  0  0  0
   -2.1203    1.5657   -0.0316 C   0  0  0  0  0  0
   -0.5896    1.5117   -0.1021 C   0  0  0  0  0  0
   -0.0368    0.0802   -0.1090 C   0  0  0  0  0  0
    1.4995   -0.0269   -0.0346 C   0  0  0  0  0  0
    2.1805    0.6948   -1.2083 C   0  0  0  0  0  0
    1.9722   -1.4940    0.0197 C   0  0  0  0  0  0
    1.5321   -2.2905    1.2546 C   0  0  0  0  0  0
    2.1471   -3.6949    1.3069 C   0  0  0  0  0  0
    1.7101   -4.4965    2.5365 C   0  0  0  0  0  0
   -4.5787    4.0733    0.0000 H   0  0  0  0  0  0
   -4.5722    2.5749    0.9415 H   0  0  0  0  0  0
   -4.6605    2.5087   -0.8227 H   0  0  0  0  0  0
   -2.3383    3.4989   -0.9691 H   0  0  0  0  0  0
   -2.2501    3.5621    0.7823 H   0  0  0  0  0  0
   -2.4633    1.0558    0.8803 H   0  0  0  0  0  0
   -2.5438    0.9973   -0.8725 H   0  0  0  0  0  0
   -0.2592    2.0482   -1.0004 H   0  0  0  0  0  0
   -0.1676    2.0601    0.7529 H   0  0  0  0  0  0
   -0.4769   -0.4607    0.7381 H   0  0  0  0  0  0
   -0.3846   -0.4392   -1.0148 H   0  0  0  0  0  0
    1.8232    0.4624    0.8978 H   0  0  0  0  0  0
    1.8497    0.2727   -2.1657 H   0  0  0  0  0  0
    3.2694    0.5870   -1.1568 H   0  0  0  0  0  0
    1.9561    1.7652   -1.2210 H   0  0  0  0  0  0
    1.6300   -2.0121   -0.8888 H   0  0  0  0  0  0
    3.0703   -1.5053   -0.0251 H   0  0  0  0  0  0
    1.8124   -1.7377    2.1632 H   0  0  0  0  0  0
    0.4388   -2.3827    1.2800 H   0  0  0  0  0  0
    1.8739   -4.2422    0.3943 H   0  0  0  0  0  0
    3.2425   -3.6109    1.2928 H   0  0  0  0  0  0
    2.1636   -5.4931    2.5500 H   0  0  0  0  0  0
    0.6216   -4.6248    2.5572 H   0  0  0  0  0  0
    1.9989   -3.9858    3.4625 H   0  0  0  0  0  0
  1  2  1  0  0  0
  1 12  1  0  0  0
  1 13  1  0  0  0
  1 14  1  0  0  0
  2  3  1  0  0  0
  2 15  1  0  0  0
  2 16  1  0  0  0
  3  4  1  0  0  0
  3 17  1  0  0  0
  3 18  1  0  0  0
  4  5  1  0  0  0
  4 19  1  0  0  0
  4 20  1  0  0  0
  5  6  1  0  0  0
  5 21  1  0  0  0
  5 22  1  0  0  0
  6  7  1  0  0  0
  6  8  1  0  0  0
  6 23  1  0  0  0
  7 24  1  0  0  0
  7 25  1  0  0  0
  7 26  1  0  0  0
  8  9  1  0  0  0
  8 27  1  0  0  0
  8 28  1  0  0  0
  9 10  1  0  0  0
  9 29  1  0  0  0
  9 30  1  0  0  0
 10 11  1  0  0  0
 10 31  1  0  0  0
 10 32  1  0  0  0
 11 33  1  0  0  0
 11 34  1  0  0  0
 11 35  1  0  0  0
M  END
>  <i_m_Spin_multiplicity> (1)
1

>  <s_j_Task> (1)
Single Point

>  <s_j_QM_Method> (1)
DFT(b3lyp-d3)

>  <s_j_QM_Basis> (1)
cc-pvtz(-f)

>  <i_j_Number_of_canonical_orbitals> (1)
466

>  <i_j_Geometry_convergence_category> (1)
3

>  <r_j_Gas_Phase_Energy> (1)
-433.828868052843

>  <r_j_Final_Energy> (1)
-433.828868052843

>  <r_j_HOMO> (1)
-0.296559648392255

>  <r_j_LUMO> (1)
0.00876686982729011

>  <r_j_Polarizability> (1)
137.030466179331

>  <r_j_QM_Dipole_(debye)> (1)
0.0807001516465336

>  <r_j_QM_Dipole_X_(debye)> (1)
0.0596715826129719

>  <r_j_QM_Dipole_Y_(debye)> (1)
0.0385507747913882

>  <r_j_QM_Dipole_Z_(debye)> (1)
0.0382838669313912

>  <r_j_Lowest_Frequency_(cm-1)> (1)
60.0557528153107

>  <r_j_Highest_Frequency_(cm-1)> (1)
3056.18564674817

>  <r_j_2nd_Lowest_Frequency_(cm-1)> (1)
88.6169013596337

>  <i_j_Num_Negative_Frequencies> (1)
0

>  <r_j_Zero_Point_Energy_(kcal/mol)> (1)
207.50761162421

>  <r_j_Entropy_(cal/mol/K)_298.15K_1.00E+00atm> (1)
114.90105243127

>  <r_j_Enthalpy_(kcal/mol)_298.15K_1.00E+00atm> (1)
9.35116551626685

>  <r_j_Free_Energy_(kcal/mol)_298.15K_1.00E+00atm> (1)
-24.9065832661164

>  <r_j_Internal_Energy_(kcal/mol)_298.15K_1.00E+00atm> (1)
8.75867992743958

>  <r_j_Heat_Capacity_(cal/mol/K)_298.15K_1.00E+00atm> (1)
52.9519222878936

>  <r_j_ln(Q)_298.15K_1.00E+00atm> (1)
42.0374499157267

>  <r_j_Total_Internal_Energy_(au)_298.15K_1.00E+00atm> (1)
-433.484225777481

>  <r_j_Total_Enthalpy_(au)_298.15K_1.00E+00atm> (1)
-433.483281591589

>  <r_j_Total_Free_Energy_(au)_298.15K_1.00E+00atm> (1)
-433.537874789653

>  <r_lp_tautomer_probability> (1)
1

>  <r_epik_Ionization_Penalty> (1)
  0.0000

>  <r_epik_Ionization_Penalty_Charging> (1)
  0.0000

>  <r_epik_Ionization_Penalty_Neutral> (1)
  0.0000

>  <r_epik_State_Penalty> (1)
  0.0000

>  <r_epik_Charging_Adjusted_Penalty> (1)
0

>  <i_epik_Tot_Q> (1)
0

>  <i_epik_Tot_abs_Q> (1)
0

>  <s_lp_Force_Field> (1)
S-OPLS

>  <r_lp_Energy> (1)
5.75249

>  <b_lp_Chiralities_Consistent> (1)
1

$$$$
