93269_Propylene glycol monoethyl ether
                    3D
 Schrodinger Suite 2021-3.
 19 18  0  0  1  0            999 V2000
   -0.6939   -0.4992    1.2191 O   0  0  0  0  0  0
   -0.0908    0.0555    0.0655 C   0  0  0  0  0  0
    1.3197    0.0185    0.1169 O   0  0  0  0  0  0
    1.8830   -1.2851    0.1091 C   0  0  0  0  0  0
    3.3900   -1.1471   -0.0230 C   0  0  0  0  0  0
   -0.5058    1.5162   -0.0142 C   0  0  0  0  0  0
    0.0642    2.2331   -1.2390 C   0  0  0  0  0  0
   -0.6945   -1.4606    1.1349 H   0  0  0  0  0  0
   -0.4265   -0.4976   -0.8341 H   0  0  0  0  0  0
    1.6296   -1.8173    1.0392 H   0  0  0  0  0  0
    1.4730   -1.8723   -0.7321 H   0  0  0  0  0  0
    3.8695   -2.1311   -0.0203 H   0  0  0  0  0  0
    3.7891   -0.5617    0.8100 H   0  0  0  0  0  0
    3.6451   -0.6346   -0.9550 H   0  0  0  0  0  0
   -1.6003    1.5481   -0.0130 H   0  0  0  0  0  0
   -0.1675    1.9959    0.9109 H   0  0  0  0  0  0
   -0.2518    3.2804   -1.2614 H   0  0  0  0  0  0
   -0.2772    1.7621   -2.1684 H   0  0  0  0  0  0
    1.1564    2.2001   -1.2287 H   0  0  0  0  0  0
  1  2  1  0  0  0
  1  8  1  0  0  0
  2  3  1  0  0  0
  2  6  1  0  0  0
  2  9  1  0  0  0
  3  4  1  0  0  0
  4  5  1  0  0  0
  4 10  1  0  0  0
  4 11  1  0  0  0
  5 12  1  0  0  0
  5 13  1  0  0  0
  5 14  1  0  0  0
  6  7  1  0  0  0
  6 15  1  0  0  0
  6 16  1  0  0  0
  7 17  1  0  0  0
  7 18  1  0  0  0
  7 19  1  0  0  0
M  END
>  <i_m_Spin_multiplicity> (1)
1

>  <s_j_Task> (1)
Single Point

>  <s_j_QM_Method> (1)
DFT(b3lyp-d3)

>  <s_j_QM_Basis> (1)
cc-pvtz(-f)

>  <i_j_Number_of_canonical_orbitals> (1)
269

>  <i_j_Geometry_convergence_category> (1)
3

>  <r_j_Gas_Phase_Energy> (1)
-348.344205703254

>  <r_j_Final_Energy> (1)
-348.344205703254

>  <r_j_HOMO> (1)
-0.27518890908106

>  <r_j_LUMO> (1)
0.012832417174407

>  <r_j_Polarizability> (1)
71.6772772127148

>  <r_j_QM_Dipole_(debye)> (1)
2.0267830755381

>  <r_j_QM_Dipole_X_(debye)> (1)
0.0926119976907944

>  <r_j_QM_Dipole_Y_(debye)> (1)
-1.75128107369425

>  <r_j_QM_Dipole_Z_(debye)> (1)
-1.01601538083422

>  <r_j_Lowest_Frequency_(cm-1)> (1)
103.934468416681

>  <r_j_Highest_Frequency_(cm-1)> (1)
3778.3215444036

>  <r_j_2nd_Lowest_Frequency_(cm-1)> (1)
133.806742615054

>  <i_j_Num_Negative_Frequencies> (1)
0

>  <r_j_Zero_Point_Energy_(kcal/mol)> (1)
106.334229385874

>  <r_j_Entropy_(cal/mol/K)_298.15K_1.00E+00atm> (1)
88.7717520469008

>  <r_j_Enthalpy_(kcal/mol)_298.15K_1.00E+00atm> (1)
5.96081034085922

>  <r_j_Free_Energy_(kcal/mol)_298.15K_1.00E+00atm> (1)
-20.5064875319242

>  <r_j_Internal_Energy_(kcal/mol)_298.15K_1.00E+00atm> (1)
5.36832475203195

>  <r_j_Heat_Capacity_(cal/mol/K)_298.15K_1.00E+00atm> (1)
31.1581850571186

>  <r_j_ln(Q)_298.15K_1.00E+00atm> (1)
34.6109473692236

>  <r_j_Total_Internal_Energy_(au)_298.15K_1.00E+00atm> (1)
-348.166196351239

>  <r_j_Total_Enthalpy_(au)_298.15K_1.00E+00atm> (1)
-348.165252165347

>  <r_j_Total_Free_Energy_(au)_298.15K_1.00E+00atm> (1)
-348.20743048956

>  <r_lp_tautomer_probability> (1)
1

>  <r_epik_Ionization_Penalty> (1)
  0.0000

>  <r_epik_Ionization_Penalty_Charging> (1)
  0.0000

>  <r_epik_Ionization_Penalty_Neutral> (1)
  0.0000

>  <r_epik_State_Penalty> (1)
  0.0000

>  <r_epik_Charging_Adjusted_Penalty> (1)
0

>  <i_epik_Tot_Q> (1)
0

>  <i_epik_Tot_abs_Q> (1)
0

>  <s_lp_Force_Field> (1)
S-OPLS

>  <r_lp_Energy> (1)
-0.556003

>  <b_lp_Chiralities_Consistent> (1)
1

>  <s_epik_Chemistry_Notes> (1)
This compound contains an acetal/aminal-like group ( X-CH(R)-Y where X, Y are N, S, or O) that may be acid/base labile, releasing an aldehyde.

$$$$
