93280_Heptane, 2,3,4-trimethyl
                    3D
 Schrodinger Suite 2021-3.
 32 31  0  0  1  0            999 V2000
   -2.7315   -1.2877    2.5430 C   0  0  0  0  0  0
   -2.1532   -0.6949    1.2543 C   0  0  0  0  0  0
   -0.6249   -0.8216    1.1816 C   0  0  0  0  0  0
    0.0172   -0.1327   -0.0392 C   0  0  0  0  0  0
   -0.4766   -0.7464   -1.3618 C   0  0  0  0  0  0
    1.5733   -0.0928    0.0263 C   0  0  0  0  0  0
    2.1924   -1.5009   -0.0477 C   0  0  0  0  0  0
    2.1322    0.7018    1.2419 C   0  0  0  0  0  0
    1.4429    2.0627    1.4342 C   0  0  0  0  0  0
    3.6512    0.9190    1.1246 C   0  0  0  0  0  0
   -3.8220   -1.1928    2.5767 H   0  0  0  0  0  0
   -2.3247   -0.7832    3.4272 H   0  0  0  0  0  0
   -2.4866   -2.3526    2.6305 H   0  0  0  0  0  0
   -2.6130   -1.1917    0.3916 H   0  0  0  0  0  0
   -2.4313    0.3658    1.1800 H   0  0  0  0  0  0
   -0.2041   -0.3987    2.1027 H   0  0  0  0  0  0
   -0.3547   -1.8865    1.1870 H   0  0  0  0  0  0
   -0.3243    0.9104   -0.0403 H   0  0  0  0  0  0
   -0.3572   -1.8353   -1.3769 H   0  0  0  0  0  0
    0.0759   -0.3381   -2.2155 H   0  0  0  0  0  0
   -1.5368   -0.5339   -1.5259 H   0  0  0  0  0  0
    1.8940    0.4570   -0.8735 H   0  0  0  0  0  0
    2.0007   -2.0666    0.8709 H   0  0  0  0  0  0
    3.2752   -1.4580   -0.1870 H   0  0  0  0  0  0
    1.7875   -2.0773   -0.8836 H   0  0  0  0  0  0
    1.9553    0.1037    2.1477 H   0  0  0  0  0  0
    1.5046    2.6641    0.5186 H   0  0  0  0  0  0
    1.9282    2.6302    2.2352 H   0  0  0  0  0  0
    0.3867    1.9644    1.6984 H   0  0  0  0  0  0
    3.8934    1.4777    0.2117 H   0  0  0  0  0  0
    4.2092   -0.0203    1.0997 H   0  0  0  0  0  0
    4.0256    1.4983    1.9752 H   0  0  0  0  0  0
  1  2  1  0  0  0
  1 11  1  0  0  0
  1 12  1  0  0  0
  1 13  1  0  0  0
  2  3  1  0  0  0
  2 14  1  0  0  0
  2 15  1  0  0  0
  3  4  1  0  0  0
  3 16  1  0  0  0
  3 17  1  0  0  0
  4  5  1  0  0  0
  4  6  1  0  0  0
  4 18  1  0  0  0
  5 19  1  0  0  0
  5 20  1  0  0  0
  5 21  1  0  0  0
  6  7  1  0  0  0
  6  8  1  0  0  0
  6 22  1  0  0  0
  7 23  1  0  0  0
  7 24  1  0  0  0
  7 25  1  0  0  0
  8  9  1  0  0  0
  8 10  1  0  0  0
  8 26  1  0  0  0
  9 27  1  0  0  0
  9 28  1  0  0  0
  9 29  1  0  0  0
 10 30  1  0  0  0
 10 31  1  0  0  0
 10 32  1  0  0  0
M  END
>  <i_m_Spin_multiplicity> (1)
1

>  <s_j_Task> (1)
Single Point

>  <s_j_QM_Method> (1)
DFT(b3lyp-d3)

>  <s_j_QM_Basis> (1)
cc-pvtz(-f)

>  <i_j_Number_of_canonical_orbitals> (1)
426

>  <i_j_Geometry_convergence_category> (1)
3

>  <r_j_Gas_Phase_Energy> (1)
-394.496613501499

>  <r_j_Final_Energy> (1)
-394.496613501499

>  <r_j_HOMO> (1)
-0.299651700105645

>  <r_j_LUMO> (1)
0.019244665927567

>  <r_j_Polarizability> (1)
122.019659384448

>  <r_j_QM_Dipole_(debye)> (1)
0.0769946368328169

>  <r_j_QM_Dipole_X_(debye)> (1)
-0.0501818139670007

>  <r_j_QM_Dipole_Y_(debye)> (1)
0.0575887691637558

>  <r_j_QM_Dipole_Z_(debye)> (1)
0.00966919408236042

>  <r_j_Lowest_Frequency_(cm-1)> (1)
79.4178790375719

>  <r_j_Highest_Frequency_(cm-1)> (1)
3072.29946591023

>  <r_j_2nd_Lowest_Frequency_(cm-1)> (1)
98.1644365088835

>  <i_j_Num_Negative_Frequencies> (1)
0

>  <r_j_Zero_Point_Energy_(kcal/mol)> (1)
189.500106088142

>  <r_j_Entropy_(cal/mol/K)_298.15K_1.00E+00atm> (1)
106.547469952669

>  <r_j_Enthalpy_(kcal/mol)_298.15K_1.00E+00atm> (1)
8.49842918294483

>  <r_j_Free_Energy_(kcal/mol)_298.15K_1.00E+00atm> (1)
-23.2686989834435

>  <r_j_Internal_Energy_(kcal/mol)_298.15K_1.00E+00atm> (1)
7.90594359411756

>  <r_j_Heat_Capacity_(cal/mol/K)_298.15K_1.00E+00atm> (1)
49.2124524351666

>  <r_j_ln(Q)_298.15K_1.00E+00atm> (1)
39.2730210189585

>  <r_j_Total_Internal_Energy_(au)_298.15K_1.00E+00atm> (1)
-394.182026934889

>  <r_j_Total_Enthalpy_(au)_298.15K_1.00E+00atm> (1)
-394.181082748997

>  <r_j_Total_Free_Energy_(au)_298.15K_1.00E+00atm> (1)
-394.231706890441

>  <r_lp_tautomer_probability> (1)
1

>  <r_epik_Ionization_Penalty> (1)
  0.0000

>  <r_epik_Ionization_Penalty_Charging> (1)
  0.0000

>  <r_epik_Ionization_Penalty_Neutral> (1)
  0.0000

>  <r_epik_State_Penalty> (1)
  0.0000

>  <r_epik_Charging_Adjusted_Penalty> (1)
0

>  <i_epik_Tot_Q> (1)
0

>  <i_epik_Tot_abs_Q> (1)
0

>  <s_lp_Force_Field> (1)
S-OPLS

>  <r_lp_Energy> (1)
9.19093

>  <b_lp_Chiralities_Consistent> (1)
1

$$$$
