94210_Diethylene Glycol 2-Ethylhexyl Ether
                    3D
 Schrodinger Suite 2021-3.
 41 40  0  0  1  0            999 V2000
   -0.8888   -4.4394   -2.7840 C   0  0  0  0  0  0
   -0.9282   -2.9086   -2.7677 C   0  0  0  0  0  0
   -0.3636   -2.3064   -1.4749 C   0  0  0  0  0  0
   -0.4084   -0.7720   -1.4639 C   0  0  0  0  0  0
    0.0740   -0.1027   -0.1618 C   0  0  0  0  0  0
   -0.3111    1.3890   -0.0974 C   0  0  0  0  0  0
   -1.8048    1.6475    0.1218 C   0  0  0  0  0  0
    1.5880   -0.2604    0.0068 C   0  0  0  0  0  0
    1.9535    0.2116    1.2992 O   0  0  0  0  0  0
    3.3370    0.4510    1.4796 C   0  0  0  0  0  0
    4.1419   -0.8356    1.6599 C   0  0  0  0  0  0
    5.4774   -0.4512    1.9200 O   0  0  0  0  0  0
    6.3537   -1.5460    2.1033 C   0  0  0  0  0  0
    7.7677   -1.0250    2.2622 C   0  0  0  0  0  0
    8.2217   -0.5638    0.9974 O   0  0  0  0  0  0
   -1.2982   -4.8429   -3.7160 H   0  0  0  0  0  0
   -1.4715   -4.8575   -1.9550 H   0  0  0  0  0  0
    0.1383   -4.8088   -2.6835 H   0  0  0  0  0  0
   -0.3638   -2.5166   -3.6249 H   0  0  0  0  0  0
   -1.9628   -2.5652   -2.9040 H   0  0  0  0  0  0
   -0.9323   -2.6908   -0.6162 H   0  0  0  0  0  0
    0.6660   -2.6627   -1.3394 H   0  0  0  0  0  0
    0.1817   -0.3813   -2.3066 H   0  0  0  0  0  0
   -1.4420   -0.4613   -1.6582 H   0  0  0  0  0  0
   -0.3953   -0.6147    0.6915 H   0  0  0  0  0  0
    0.2559    1.8492    0.7180 H   0  0  0  0  0  0
    0.0205    1.8789   -1.0246 H   0  0  0  0  0  0
   -2.0115    2.7206    0.1901 H   0  0  0  0  0  0
   -2.1475    1.1833    1.0536 H   0  0  0  0  0  0
   -2.4197    1.2486   -0.6917 H   0  0  0  0  0  0
    1.8851   -1.3113   -0.1180 H   0  0  0  0  0  0
    2.1099    0.3214   -0.7736 H   0  0  0  0  0  0
    3.7595    1.0269    0.6415 H   0  0  0  0  0  0
    3.4363    1.0565    2.3857 H   0  0  0  0  0  0
    3.7161   -1.4194    2.4934 H   0  0  0  0  0  0
    4.0861   -1.4635    0.7552 H   0  0  0  0  0  0
    6.0736   -2.1243    3.0012 H   0  0  0  0  0  0
    6.3183   -2.2295    1.2390 H   0  0  0  0  0  0
    7.7585   -0.2222    3.0154 H   0  0  0  0  0  0
    8.3993   -1.8433    2.6476 H   0  0  0  0  0  0
    9.0471   -0.0827    1.1316 H   0  0  0  0  0  0
  1  2  1  0  0  0
  1 16  1  0  0  0
  1 17  1  0  0  0
  1 18  1  0  0  0
  2  3  1  0  0  0
  2 19  1  0  0  0
  2 20  1  0  0  0
  3  4  1  0  0  0
  3 21  1  0  0  0
  3 22  1  0  0  0
  4  5  1  0  0  0
  4 23  1  0  0  0
  4 24  1  0  0  0
  5  6  1  0  0  0
  5  8  1  0  0  0
  5 25  1  0  0  0
  6  7  1  0  0  0
  6 26  1  0  0  0
  6 27  1  0  0  0
  7 28  1  0  0  0
  7 29  1  0  0  0
  7 30  1  0  0  0
  8  9  1  0  0  0
  8 31  1  0  0  0
  8 32  1  0  0  0
  9 10  1  0  0  0
 10 11  1  0  0  0
 10 33  1  0  0  0
 10 34  1  0  0  0
 11 12  1  0  0  0
 11 35  1  0  0  0
 11 36  1  0  0  0
 12 13  1  0  0  0
 13 14  1  0  0  0
 13 37  1  0  0  0
 13 38  1  0  0  0
 14 15  1  0  0  0
 14 39  1  0  0  0
 14 40  1  0  0  0
 15 41  1  0  0  0
M  END
>  <i_m_Spin_multiplicity> (1)
1

>  <s_j_Task> (1)
Single Point

>  <s_j_QM_Method> (1)
DFT(b3lyp-d3)

>  <s_j_QM_Basis> (1)
cc-pvtz(-f)

>  <i_j_Number_of_canonical_orbitals> (1)
576

>  <i_j_Geometry_convergence_category> (1)
3

>  <r_j_Gas_Phase_Energy> (1)
-698.862228809463

>  <r_j_Final_Energy> (1)
-698.862228809463

>  <r_j_HOMO> (1)
-0.261273151233798

>  <r_j_LUMO> (1)
0.0125728310936392

>  <r_j_Polarizability> (1)
162.307664918815

>  <r_j_QM_Dipole_(debye)> (1)
1.59678679890296

>  <r_j_QM_Dipole_X_(debye)> (1)
1.26336172072085

>  <r_j_QM_Dipole_Y_(debye)> (1)
-0.891616079749391

>  <r_j_QM_Dipole_Z_(debye)> (1)
0.398329022417842

>  <r_j_Lowest_Frequency_(cm-1)> (1)
34.2642041506309

>  <r_j_Highest_Frequency_(cm-1)> (1)
3782.92492955905

>  <r_j_2nd_Lowest_Frequency_(cm-1)> (1)
39.6299901882525

>  <i_j_Num_Negative_Frequencies> (1)
0

>  <r_j_Zero_Point_Energy_(kcal/mol)> (1)
234.16783428473

>  <r_j_Entropy_(cal/mol/K)_298.15K_1.00E+00atm> (1)
136.123082325019

>  <r_j_Enthalpy_(kcal/mol)_298.15K_1.00E+00atm> (1)
12.0581362827109

>  <r_j_Free_Energy_(kcal/mol)_298.15K_1.00E+00atm> (1)
-28.5269607124935

>  <r_j_Internal_Energy_(kcal/mol)_298.15K_1.00E+00atm> (1)
11.4656506938837

>  <r_j_Heat_Capacity_(cal/mol/K)_298.15K_1.00E+00atm> (1)
67.8196473970741

>  <r_j_ln(Q)_298.15K_1.00E+00atm> (1)
48.1479402207197

>  <r_j_Total_Internal_Energy_(au)_298.15K_1.00E+00atm> (1)
-698.470786932133

>  <r_j_Total_Enthalpy_(au)_298.15K_1.00E+00atm> (1)
-698.469842746241

>  <r_j_Total_Free_Energy_(au)_298.15K_1.00E+00atm> (1)
-698.534519215578

>  <r_lp_tautomer_probability> (1)
1

>  <r_epik_Ionization_Penalty> (1)
  0.0000

>  <r_epik_Ionization_Penalty_Charging> (1)
  0.0000

>  <r_epik_Ionization_Penalty_Neutral> (1)
  0.0000

>  <r_epik_State_Penalty> (1)
  0.0000

>  <r_epik_Charging_Adjusted_Penalty> (1)
0

>  <i_epik_Tot_Q> (1)
0

>  <i_epik_Tot_abs_Q> (1)
0

>  <s_lp_Force_Field> (1)
S-OPLS

>  <r_lp_Energy> (1)
12.195764

>  <b_lp_Chiralities_Consistent> (1)
1

$$$$
