94226_4-nonene
                    3D
 Schrodinger Suite 2021-3.
 27 26  0  0  1  0            999 V2000
   -2.7823    2.8552   -0.3749 C   0  0  0  0  0  0
   -2.1619    1.4946   -0.0446 C   0  0  0  0  0  0
   -0.6296    1.5258   -0.0132 C   0  0  0  0  0  0
   -0.0052    0.1608    0.3300 C   0  0  0  0  0  0
    1.4979    0.1812    0.3133 C   0  0  0  0  0  0
    2.2866   -0.0533    1.3645 C   0  0  0  0  0  0
    3.7898   -0.0447    1.3501 C   0  0  0  0  0  0
    4.3953   -1.4186    1.6958 C   0  0  0  0  0  0
    5.9257   -1.4006    1.7330 C   0  0  0  0  0  0
   -3.8760    2.8057   -0.3917 H   0  0  0  0  0  0
   -2.4492    3.2126   -1.3561 H   0  0  0  0  0  0
   -2.4937    3.6099    0.3656 H   0  0  0  0  0  0
   -2.5357    1.1458    0.9278 H   0  0  0  0  0  0
   -2.4928    0.7495   -0.7811 H   0  0  0  0  0  0
   -0.2513    1.8650   -0.9880 H   0  0  0  0  0  0
   -0.2892    2.2694    0.7198 H   0  0  0  0  0  0
   -0.3636   -0.1676    1.3143 H   0  0  0  0  0  0
   -0.3703   -0.5813   -0.3962 H   0  0  0  0  0  0
    1.9601    0.4257   -0.6456 H   0  0  0  0  0  0
    1.8230   -0.2974    2.3230 H   0  0  0  0  0  0
    4.1548    0.2786    0.3665 H   0  0  0  0  0  0
    4.1626    0.6926    2.0774 H   0  0  0  0  0  0
    4.0050   -1.7496    2.6676 H   0  0  0  0  0  0
    4.0456   -2.1543    0.9608 H   0  0  0  0  0  0
    6.3331   -2.3871    1.9769 H   0  0  0  0  0  0
    6.2940   -0.6920    2.4841 H   0  0  0  0  0  0
    6.3403   -1.0986    0.7643 H   0  0  0  0  0  0
  1  2  1  0  0  0
  1 10  1  0  0  0
  1 11  1  0  0  0
  1 12  1  0  0  0
  2  3  1  0  0  0
  2 13  1  0  0  0
  2 14  1  0  0  0
  3  4  1  0  0  0
  3 15  1  0  0  0
  3 16  1  0  0  0
  4  5  1  0  0  0
  4 17  1  0  0  0
  4 18  1  0  0  0
  5  6  2  0  0  0
  5 19  1  0  0  0
  6  7  1  0  0  0
  6 20  1  0  0  0
  7  8  1  0  0  0
  7 21  1  0  0  0
  7 22  1  0  0  0
  8  9  1  0  0  0
  8 23  1  0  0  0
  8 24  1  0  0  0
  9 25  1  0  0  0
  9 26  1  0  0  0
  9 27  1  0  0  0
M  END
>  <i_m_Spin_multiplicity> (1)
1

>  <s_j_Task> (1)
Single Point

>  <s_j_QM_Method> (1)
DFT(b3lyp-d3)

>  <s_j_QM_Basis> (1)
cc-pvtz(-f)

>  <i_j_Number_of_canonical_orbitals> (1)
365

>  <i_j_Geometry_convergence_category> (1)
0

>  <r_j_Gas_Phase_Energy> (1)
-353.936562970878

>  <r_j_Final_Energy> (1)
-353.936562970878

>  <r_j_HOMO> (1)
-0.247504680490748

>  <r_j_LUMO> (1)
0.0120249801559229

>  <r_j_Polarizability> (1)
114.603417618883

>  <r_j_QM_Dipole_(debye)> (1)
0.0867946440228984

>  <r_j_QM_Dipole_X_(debye)> (1)
-0.0582496415710002

>  <r_j_QM_Dipole_Y_(debye)> (1)
-0.0634992680641276

>  <r_j_QM_Dipole_Z_(debye)> (1)
0.0103986750709757

>  <r_j_Lowest_Frequency_(cm-1)> (1)
63.141997609853

>  <r_j_Highest_Frequency_(cm-1)> (1)
3068.50520995927

>  <r_j_2nd_Lowest_Frequency_(cm-1)> (1)
76.949495344998

>  <i_j_Num_Negative_Frequencies> (1)
0

>  <r_j_Zero_Point_Energy_(kcal/mol)> (1)
157.009894252258

>  <r_j_Entropy_(cal/mol/K)_298.15K_1.00E+00atm> (1)
101.957637427056

>  <r_j_Enthalpy_(kcal/mol)_298.15K_1.00E+00atm> (1)
7.61748441113182

>  <r_j_Free_Energy_(kcal/mol)_298.15K_1.00E+00atm> (1)
-22.781185187745

>  <r_j_Internal_Energy_(kcal/mol)_298.15K_1.00E+00atm> (1)
7.02499882230455

>  <r_j_Heat_Capacity_(cal/mol/K)_298.15K_1.00E+00atm> (1)
41.5036370264241

>  <r_j_ln(Q)_298.15K_1.00E+00atm> (1)
38.4501929115889

>  <r_j_Total_Internal_Energy_(au)_298.15K_1.00E+00atm> (1)
-353.675156727759

>  <r_j_Total_Enthalpy_(au)_298.15K_1.00E+00atm> (1)
-353.674212541867

>  <r_j_Total_Free_Energy_(au)_298.15K_1.00E+00atm> (1)
-353.722655905755

>  <r_lp_tautomer_probability> (1)
1

>  <r_epik_Ionization_Penalty> (1)
  0.0000

>  <r_epik_Ionization_Penalty_Charging> (1)
  0.0000

>  <r_epik_Ionization_Penalty_Neutral> (1)
  0.0000

>  <r_epik_State_Penalty> (1)
  0.0000

>  <r_epik_Charging_Adjusted_Penalty> (1)
0

>  <i_epik_Tot_Q> (1)
0

>  <i_epik_Tot_abs_Q> (1)
0

>  <s_lp_Force_Field> (1)
S-OPLS

>  <r_lp_Energy> (1)
-2.412505

>  <b_lp_Chiralities_Consistent> (1)
1

$$$$
