94276_1,2,3,5-tetramethylcyclohexane
                    3D
 Schrodinger Suite 2021-3.
 30 30  0  0  1  0            999 V2000
   -0.0538   -0.0537   -0.0008 C   0  0  0  0  0  0
    1.4767    0.0135    0.0005 C   0  0  0  0  0  0
    2.0135    0.7074   -1.2625 C   0  0  0  0  0  0
    3.5473    0.8340   -1.2647 C   0  0  0  0  0  0
    4.0574    1.5757    0.0000 C   0  0  0  0  0  0
    3.5465    0.8344    1.2649 C   0  0  0  0  0  0
    2.0124    0.7085    1.2635 C   0  0  0  0  0  0
    4.0584    1.4440    2.5757 C   0  0  0  0  0  0
    3.7265    3.0786   -0.0006 C   0  0  0  0  0  0
    4.0574    1.4449   -2.5756 C   0  0  0  0  0  0
   -0.4865    0.9544   -0.0013 H   0  0  0  0  0  0
   -0.4312   -0.5767    0.8849 H   0  0  0  0  0  0
   -0.4297   -0.5770   -0.8870 H   0  0  0  0  0  0
    1.8652   -1.0171    0.0011 H   0  0  0  0  0  0
    1.6900    0.1543   -2.1543 H   0  0  0  0  0  0
    1.5609    1.7062   -1.3460 H   0  0  0  0  0  0
    3.9532   -0.1878   -1.2021 H   0  0  0  0  0  0
    5.1548    1.4929    0.0002 H   0  0  0  0  0  0
    3.9513   -0.1878    1.2018 H   0  0  0  0  0  0
    1.5600    1.7074    1.3459 H   0  0  0  0  0  0
    1.6886    0.1559    2.1555 H   0  0  0  0  0  0
    3.6021    2.4198    2.7734 H   0  0  0  0  0  0
    5.1457    1.5810    2.5541 H   0  0  0  0  0  0
    3.8186    0.7945    3.4246 H   0  0  0  0  0  0
    2.6489    3.2686   -0.0013 H   0  0  0  0  0  0
    4.1479    3.5736   -0.8799 H   0  0  0  0  0  0
    4.1470    3.5742    0.8787 H   0  0  0  0  0  0
    3.6001    2.4205   -2.7722 H   0  0  0  0  0  0
    3.8172    0.7960   -3.4248 H   0  0  0  0  0  0
    5.1445    1.5829   -2.5551 H   0  0  0  0  0  0
  1  2  1  0  0  0
  1 11  1  0  0  0
  1 12  1  0  0  0
  1 13  1  0  0  0
  2  7  1  0  0  0
  2  3  1  0  0  0
  2 14  1  0  0  0
  3  4  1  0  0  0
  3 15  1  0  0  0
  3 16  1  0  0  0
  4  5  1  0  0  0
  4 10  1  0  0  0
  4 17  1  0  0  0
  5  6  1  0  0  0
  5  9  1  0  0  0
  5 18  1  0  0  0
  6  7  1  0  0  0
  6  8  1  0  0  0
  6 19  1  0  0  0
  7 20  1  0  0  0
  7 21  1  0  0  0
  8 22  1  0  0  0
  8 23  1  0  0  0
  8 24  1  0  0  0
  9 25  1  0  0  0
  9 26  1  0  0  0
  9 27  1  0  0  0
 10 28  1  0  0  0
 10 29  1  0  0  0
 10 30  1  0  0  0
M  END
>  <i_m_Spin_multiplicity> (1)
1

>  <s_j_Task> (1)
Single Point

>  <s_j_QM_Method> (1)
DFT(b3lyp-d3)

>  <s_j_QM_Basis> (1)
cc-pvtz(-f)

>  <i_j_Number_of_canonical_orbitals> (1)
406

>  <i_j_Geometry_convergence_category> (1)
0

>  <r_j_Gas_Phase_Energy> (1)
-393.293690303327

>  <r_j_Final_Energy> (1)
-393.293690303327

>  <r_j_HOMO> (1)
-0.283834342182476

>  <r_j_LUMO> (1)
0.027625117966654

>  <r_j_Polarizability> (1)
117.035808545396

>  <r_j_QM_Dipole_(debye)> (1)
0.239273572106912

>  <r_j_QM_Dipole_X_(debye)> (1)
0.130977057230596

>  <r_j_QM_Dipole_Y_(debye)> (1)
-0.200241744464052

>  <r_j_QM_Dipole_Z_(debye)> (1)
-0.000310744280159848

>  <r_j_Lowest_Frequency_(cm-1)> (1)
121.269970190094

>  <r_j_Highest_Frequency_(cm-1)> (1)
3062.72962450395

>  <r_j_2nd_Lowest_Frequency_(cm-1)> (1)
182.985020578021

>  <i_j_Num_Negative_Frequencies> (1)
0

>  <r_j_Zero_Point_Energy_(kcal/mol)> (1)
176.807333925564

>  <r_j_Entropy_(cal/mol/K)_298.15K_1.00E+00atm> (1)
97.0565890775282

>  <r_j_Enthalpy_(kcal/mol)_298.15K_1.00E+00atm> (1)
7.30337216236542

>  <r_j_Free_Energy_(kcal/mol)_298.15K_1.00E+00atm> (1)
-21.6340498710996

>  <r_j_Internal_Energy_(kcal/mol)_298.15K_1.00E+00atm> (1)
6.71088657353814

>  <r_j_Heat_Capacity_(cal/mol/K)_298.15K_1.00E+00atm> (1)
44.1675058408381

>  <r_j_ln(Q)_298.15K_1.00E+00atm> (1)
36.514052458087

>  <r_j_Total_Internal_Energy_(au)_298.15K_1.00E+00atm> (1)
-393.001235401412

>  <r_j_Total_Enthalpy_(au)_298.15K_1.00E+00atm> (1)
-393.00029121552

>  <r_j_Total_Free_Energy_(au)_298.15K_1.00E+00atm> (1)
-393.046405933173

>  <r_lp_tautomer_probability> (1)
1

>  <r_epik_Ionization_Penalty> (1)
  0.0000

>  <r_epik_Ionization_Penalty_Charging> (1)
  0.0000

>  <r_epik_Ionization_Penalty_Neutral> (1)
  0.0000

>  <r_epik_State_Penalty> (1)
  0.0000

>  <r_epik_Charging_Adjusted_Penalty> (1)
0

>  <i_epik_Tot_Q> (1)
0

>  <i_epik_Tot_abs_Q> (1)
0

>  <s_lp_Force_Field> (1)
S-OPLS

>  <r_lp_Energy> (1)
14.2914

>  <b_lp_Chiralities_Consistent> (1)
1

$$$$
