942_Nicotine
                    3D
 Schrodinger Suite 2021-3.
 26 27  0  0  1  0            999 V2000
   -0.0189   -0.0018   -0.0330 C   0  0  0  0  0  0
    1.4299   -0.0298    0.0737 N   0  0  0  0  0  0
    1.9410    0.5352    1.3218 C   0  0  0  0  0  0
    3.4272    0.1300    1.3350 C   0  0  0  0  0  0
    3.4875   -1.1252    0.4230 C   0  0  0  0  0  0
    2.0179   -1.3723   -0.0050 C   0  0  0  0  0  0
    1.8806   -1.9919   -1.3758 C   0  0  0  0  0  0
    1.5655   -3.3444   -1.5369 C   0  0  0  0  0  0
    1.4697   -3.9656   -2.7192 N   0  0  0  0  0  0
    1.6839   -3.2262   -3.8135 C   0  0  0  0  0  0
    1.9930   -1.8643   -3.7746 C   0  0  0  0  0  0
    2.0938   -1.2395   -2.5356 C   0  0  0  0  0  0
   -0.3718    1.0332    0.0151 H   0  0  0  0  0  0
   -0.5192   -0.5733    0.7728 H   0  0  0  0  0  0
   -0.3301   -0.4231   -0.9929 H   0  0  0  0  0  0
    1.7807    1.6183    1.3457 H   0  0  0  0  0  0
    1.4192    0.1041    2.1997 H   0  0  0  0  0  0
    4.0510    0.9299    0.9275 H   0  0  0  0  0  0
    3.7765   -0.0716    2.3512 H   0  0  0  0  0  0
    4.0976   -0.9331   -0.4639 H   0  0  0  0  0  0
    3.9047   -2.0040    0.9214 H   0  0  0  0  0  0
    1.5411   -2.0494    0.7337 H   0  0  0  0  0  0
    1.3786   -3.9608   -0.6575 H   0  0  0  0  0  0
    1.6005   -3.7441   -4.7674 H   0  0  0  0  0  0
    2.1478   -1.3116   -4.6964 H   0  0  0  0  0  0
    2.3194   -0.1811   -2.4454 H   0  0  0  0  0  0
  1  2  1  0  0  0
  1 13  1  0  0  0
  1 14  1  0  0  0
  1 15  1  0  0  0
  2  6  1  0  0  0
  2  3  1  0  0  0
  3  4  1  0  0  0
  3 16  1  0  0  0
  3 17  1  0  0  0
  4  5  1  0  0  0
  4 18  1  0  0  0
  4 19  1  0  0  0
  5  6  1  0  0  0
  5 20  1  0  0  0
  5 21  1  0  0  0
  6  7  1  0  0  0
  6 22  1  0  0  0
  7 12  1  0  0  0
  7  8  2  0  0  0
  8  9  1  0  0  0
  8 23  1  0  0  0
  9 10  2  0  0  0
 10 11  1  0  0  0
 10 24  1  0  0  0
 11 12  2  0  0  0
 11 25  1  0  0  0
 12 26  1  0  0  0
M  END
>  <i_m_Spin_multiplicity> (1)
1

>  <s_j_Task> (1)
Single Point

>  <s_j_QM_Method> (1)
DFT(b3lyp-d3)

>  <s_j_QM_Basis> (1)
cc-pvtz(-f)

>  <i_j_Number_of_canonical_orbitals> (1)
397

>  <i_j_Geometry_convergence_category> (1)
0

>  <r_j_Gas_Phase_Energy> (1)
-499.16353261098

>  <r_j_Final_Energy> (1)
-499.16353261098

>  <r_j_HOMO> (1)
-0.232712894661046

>  <r_j_LUMO> (1)
-0.033876286370957

>  <r_j_Polarizability> (1)
125.995552709784

>  <r_j_QM_Dipole_(debye)> (1)
2.47852012479923

>  <r_j_QM_Dipole_X_(debye)> (1)
0.483445070574721

>  <r_j_QM_Dipole_Y_(debye)> (1)
2.22532630718757

>  <r_j_QM_Dipole_Z_(debye)> (1)
0.97839956015459

>  <r_j_Lowest_Frequency_(cm-1)> (1)
74.9098769708818

>  <r_j_Highest_Frequency_(cm-1)> (1)
3147.63892260876

>  <r_j_2nd_Lowest_Frequency_(cm-1)> (1)
102.421023015149

>  <i_j_Num_Negative_Frequencies> (1)
0

>  <r_j_Zero_Point_Energy_(kcal/mol)> (1)
141.520544023323

>  <r_j_Entropy_(cal/mol/K)_298.15K_1.00E+00atm> (1)
97.9355846768703

>  <r_j_Enthalpy_(kcal/mol)_298.15K_1.00E+00atm> (1)
6.93177721878408

>  <r_j_Free_Energy_(kcal/mol)_298.15K_1.00E+00atm> (1)
-22.2677173526248

>  <r_j_Internal_Energy_(kcal/mol)_298.15K_1.00E+00atm> (1)
6.3392916299568

>  <r_j_Heat_Capacity_(cal/mol/K)_298.15K_1.00E+00atm> (1)
40.4335003228157

>  <r_j_ln(Q)_298.15K_1.00E+00atm> (1)
37.583559452813

>  <r_j_Total_Internal_Energy_(au)_298.15K_1.00E+00atm> (1)
-498.927902962788

>  <r_j_Total_Enthalpy_(au)_298.15K_1.00E+00atm> (1)
-498.926958776896

>  <r_j_Total_Free_Energy_(au)_298.15K_1.00E+00atm> (1)
-498.973491133724

>  <r_epik_Ionization_Penalty> (1)
  1.8045

>  <r_epik_Ionization_Penalty_Charging> (1)
  0.0000

>  <r_epik_Ionization_Penalty_Neutral> (1)
  1.8045

>  <r_epik_State_Penalty> (1)
  1.9077

>  <r_epik_Charging_Adjusted_Penalty> (1)
1.90767

>  <i_epik_Tot_Q> (1)
0

>  <i_epik_Tot_abs_Q> (1)
0

>  <s_lp_Force_Field> (1)
S-OPLS

>  <r_lp_Energy> (1)
18.1104

>  <b_lp_Chiralities_Consistent> (1)
1

$$$$
