94310_2-Ethylhexyl Benzoate
                    3D
 Schrodinger Suite 2021-3.
 39 39  0  0  1  0            999 V2000
   -2.8657    2.8495   -0.3889 C   0  0  0  0  0  0
   -2.2474    1.4633   -0.1863 C   0  0  0  0  0  0
   -0.7230    1.5045   -0.0202 C   0  0  0  0  0  0
   -0.1122    0.1121    0.1902 C   0  0  0  0  0  0
    1.4272    0.0662    0.2594 C   0  0  0  0  0  0
    1.9669   -1.3785    0.1980 C   0  0  0  0  0  0
    1.8246   -2.0472   -1.1729 C   0  0  0  0  0  0
    1.9241    0.7641    1.5236 C   0  0  0  0  0  0
    3.3651    0.8327    1.4503 O   0  0  0  0  0  0
    3.9985    1.2838    2.5548 C   0  0  0  0  0  0
    3.4146    1.6360    3.5619 O   0  0  0  0  0  0
    5.4808    1.2905    2.3927 C   0  0  0  0  0  0
    6.2537    1.7149    3.4808 C   0  0  0  0  0  0
    7.6421    1.7347    3.3848 C   0  0  0  0  0  0
    8.2656    1.3318    2.2016 C   0  0  0  0  0  0
    7.4979    0.9094    1.1143 C   0  0  0  0  0  0
    6.1081    0.8873    1.2065 C   0  0  0  0  0  0
   -3.9527    2.7915   -0.5066 H   0  0  0  0  0  0
   -2.4585    3.3361   -1.2826 H   0  0  0  0  0  0
   -2.6571    3.5029    0.4661 H   0  0  0  0  0  0
   -2.6934    0.9866    0.6972 H   0  0  0  0  0  0
   -2.5002    0.8183   -1.0391 H   0  0  0  0  0  0
   -0.2728    1.9676   -0.9099 H   0  0  0  0  0  0
   -0.4781    2.1642    0.8222 H   0  0  0  0  0  0
   -0.5241   -0.3352    1.1069 H   0  0  0  0  0  0
   -0.4447   -0.5338   -0.6309 H   0  0  0  0  0  0
    1.8315    0.6218   -0.6000 H   0  0  0  0  0  0
    3.0257   -1.3662    0.4775 H   0  0  0  0  0  0
    1.4534   -1.9789    0.9624 H   0  0  0  0  0  0
    2.2565   -3.0531   -1.1643 H   0  0  0  0  0  0
    2.3449   -1.4686   -1.9448 H   0  0  0  0  0  0
    0.7788   -2.1442   -1.4811 H   0  0  0  0  0  0
    1.5357    1.7814    1.6238 H   0  0  0  0  0  0
    1.6368    0.2109    2.4254 H   0  0  0  0  0  0
    5.7453    2.0223    4.3885 H   0  0  0  0  0  0
    8.2389    2.0631    4.2304 H   0  0  0  0  0  0
    9.3493    1.3470    2.1267 H   0  0  0  0  0  0
    7.9831    0.5968    0.1944 H   0  0  0  0  0  0
    5.5047    0.5619    0.3674 H   0  0  0  0  0  0
  1  2  1  0  0  0
  1 18  1  0  0  0
  1 19  1  0  0  0
  1 20  1  0  0  0
  2  3  1  0  0  0
  2 21  1  0  0  0
  2 22  1  0  0  0
  3  4  1  0  0  0
  3 23  1  0  0  0
  3 24  1  0  0  0
  4  5  1  0  0  0
  4 25  1  0  0  0
  4 26  1  0  0  0
  5  6  1  0  0  0
  5  8  1  0  0  0
  5 27  1  0  0  0
  6  7  1  0  0  0
  6 28  1  0  0  0
  6 29  1  0  0  0
  7 30  1  0  0  0
  7 31  1  0  0  0
  7 32  1  0  0  0
  8  9  1  0  0  0
  8 33  1  0  0  0
  8 34  1  0  0  0
  9 10  1  0  0  0
 10 11  2  0  0  0
 10 12  1  0  0  0
 12 17  1  0  0  0
 12 13  2  0  0  0
 13 14  1  0  0  0
 13 35  1  0  0  0
 14 15  2  0  0  0
 14 36  1  0  0  0
 15 16  1  0  0  0
 15 37  1  0  0  0
 16 17  2  0  0  0
 16 38  1  0  0  0
 17 39  1  0  0  0
M  END
>  <i_m_Spin_multiplicity> (1)
1

>  <s_j_Task> (1)
Single Point

>  <s_j_QM_Method> (1)
DFT(b3lyp-d3)

>  <s_j_QM_Basis> (1)
cc-pvtz(-f)

>  <i_j_Number_of_canonical_orbitals> (1)
582

>  <i_j_Geometry_convergence_category> (1)
1

>  <r_j_Gas_Phase_Energy> (1)
-735.604740677541

>  <r_j_Final_Energy> (1)
-735.604740677541

>  <r_j_HOMO> (1)
-0.271033471209613

>  <r_j_LUMO> (1)
-0.060197861634154

>  <r_j_Polarizability> (1)
183.812877329677

>  <r_j_QM_Dipole_(debye)> (1)
2.08713595958213

>  <r_j_QM_Dipole_X_(debye)> (1)
0.584412694061766

>  <r_j_QM_Dipole_Y_(debye)> (1)
-0.730732386749472

>  <r_j_QM_Dipole_Z_(debye)> (1)
-1.86564425755708

>  <r_j_Lowest_Frequency_(cm-1)> (1)
41.9006974926202

>  <r_j_Highest_Frequency_(cm-1)> (1)
3170.50187102467

>  <r_j_2nd_Lowest_Frequency_(cm-1)> (1)
56.7811792688556

>  <i_j_Num_Negative_Frequencies> (1)
0

>  <r_j_Zero_Point_Energy_(kcal/mol)> (1)
214.515645917494

>  <r_j_Entropy_(cal/mol/K)_298.15K_1.00E+00atm> (1)
130.011719747315

>  <r_j_Enthalpy_(kcal/mol)_298.15K_1.00E+00atm> (1)
11.2663722740742

>  <r_j_Free_Energy_(kcal/mol)_298.15K_1.00E+00atm> (1)
-27.4966219685879

>  <r_j_Internal_Energy_(kcal/mol)_298.15K_1.00E+00atm> (1)
10.6738866852469

>  <r_j_Heat_Capacity_(cal/mol/K)_298.15K_1.00E+00atm> (1)
65.974443559601

>  <r_j_ln(Q)_298.15K_1.00E+00atm> (1)
46.4089295792203

>  <r_j_Total_Internal_Energy_(au)_298.15K_1.00E+00atm> (1)
-735.245878312321

>  <r_j_Total_Enthalpy_(au)_298.15K_1.00E+00atm> (1)
-735.244934126428

>  <r_j_Total_Free_Energy_(au)_298.15K_1.00E+00atm> (1)
-735.306706890181

>  <r_lp_tautomer_probability> (1)
1

>  <r_epik_Ionization_Penalty> (1)
  0.0000

>  <r_epik_Ionization_Penalty_Charging> (1)
  0.0000

>  <r_epik_Ionization_Penalty_Neutral> (1)
  0.0000

>  <r_epik_State_Penalty> (1)
  0.0000

>  <r_epik_Charging_Adjusted_Penalty> (1)
0

>  <i_epik_Tot_Q> (1)
0

>  <i_epik_Tot_abs_Q> (1)
0

>  <s_lp_Force_Field> (1)
S-OPLS

>  <r_lp_Energy> (1)
11.234307

>  <b_lp_Chiralities_Consistent> (1)
1

>  <s_epik_Chemistry_Notes> (1)
This compound has an ester and may undergo hydrolysis at high or low pH.

$$$$
