94322_3-methylnonadecane
                    3D
 Schrodinger Suite 2021-3.
 62 61  0  0  1  0            999 V2000
   -1.0347   10.4582   -5.0616 C   0  0  0  0  0  0
   -0.4817    9.0303   -5.0353 C   0  0  0  0  0  0
   -0.9193    8.2370   -3.7980 C   0  0  0  0  0  0
   -0.3651    6.8084   -3.7680 C   0  0  0  0  0  0
   -0.7921    6.0056   -2.5337 C   0  0  0  0  0  0
   -0.2217    4.5831   -2.5167 C   0  0  0  0  0  0
   -0.6262    3.7663   -1.2842 C   0  0  0  0  0  0
   -0.0304    2.3537   -1.2827 C   0  0  0  0  0  0
   -0.4029    1.5313   -0.0421 C   0  0  0  0  0  0
    0.1285    0.0890   -0.0589 C   0  0  0  0  0  0
    1.6589   -0.0204   -0.0369 C   0  0  0  0  0  0
    2.1673   -1.4663   -0.0046 C   0  0  0  0  0  0
    3.6971   -1.5656   -0.0098 C   0  0  0  0  0  0
    4.2207   -3.0059   -0.0096 C   0  0  0  0  0  0
    5.7518   -3.0928   -0.0245 C   0  0  0  0  0  0
    6.2703   -4.5357   -0.0559 C   0  0  0  0  0  0
    7.8005   -4.6905    0.0499 C   0  0  0  0  0  0
    8.5256   -4.0224   -1.1285 C   0  0  0  0  0  0
    8.1705   -6.1824    0.1759 C   0  0  0  0  0  0
    9.6498   -6.4588    0.4658 C   0  0  0  0  0  0
   -0.7073   11.0010   -5.9545 H   0  0  0  0  0  0
   -0.7015   11.0260   -4.1851 H   0  0  0  0  0  0
   -2.1309   10.4565   -5.0552 H   0  0  0  0  0  0
   -0.8024    8.4946   -5.9393 H   0  0  0  0  0  0
    0.6159    9.0602   -5.0746 H   0  0  0  0  0  0
   -0.5994    8.7717   -2.8919 H   0  0  0  0  0  0
   -2.0177    8.2039   -3.7572 H   0  0  0  0  0  0
   -0.6857    6.2760   -4.6751 H   0  0  0  0  0  0
    0.7330    6.8454   -3.8128 H   0  0  0  0  0  0
   -0.4735    6.5368   -1.6253 H   0  0  0  0  0  0
   -1.8897    5.9603   -2.4887 H   0  0  0  0  0  0
   -0.5434    4.0526   -3.4246 H   0  0  0  0  0  0
    0.8754    4.6340   -2.5711 H   0  0  0  0  0  0
   -0.3076    4.2966   -0.3752 H   0  0  0  0  0  0
   -1.7225    3.7030   -1.2294 H   0  0  0  0  0  0
   -0.3624    1.8179   -2.1841 H   0  0  0  0  0  0
    1.0614    2.4328   -1.3632 H   0  0  0  0  0  0
   -0.0319    2.0445    0.8570 H   0  0  0  0  0  0
   -1.4972    1.5077    0.0522 H   0  0  0  0  0  0
   -0.2780   -0.4524    0.8061 H   0  0  0  0  0  0
   -0.2576   -0.4283   -0.9492 H   0  0  0  0  0  0
    2.0813    0.4808   -0.9173 H   0  0  0  0  0  0
    2.0478    0.5229    0.8368 H   0  0  0  0  0  0
    1.7699   -1.9763    0.8846 H   0  0  0  0  0  0
    1.7653   -2.0113   -0.8710 H   0  0  0  0  0  0
    4.0900   -1.0389   -0.8916 H   0  0  0  0  0  0
    4.0990   -1.0320    0.8636 H   0  0  0  0  0  0
    3.8326   -3.5361    0.8719 H   0  0  0  0  0  0
    3.8187   -3.5383   -0.8837 H   0  0  0  0  0  0
    6.1278   -2.5372   -0.8930 H   0  0  0  0  0  0
    6.1536   -2.5806    0.8619 H   0  0  0  0  0  0
    5.8046   -5.0915    0.7703 H   0  0  0  0  0  0
    5.9258   -5.0243   -0.9798 H   0  0  0  0  0  0
    8.1232   -4.1889    0.9764 H   0  0  0  0  0  0
    8.2264   -4.4870   -2.0768 H   0  0  0  0  0  0
    9.6120   -4.1138   -1.0402 H   0  0  0  0  0  0
    8.2963   -2.9549   -1.1932 H   0  0  0  0  0  0
    7.5650   -6.6249    0.9781 H   0  0  0  0  0  0
    7.8736   -6.7000   -0.7478 H   0  0  0  0  0  0
    9.8236   -7.5270    0.6318 H   0  0  0  0  0  0
    9.9803   -5.9245    1.3644 H   0  0  0  0  0  0
   10.2962   -6.1480   -0.3609 H   0  0  0  0  0  0
  1  2  1  0  0  0
  1 21  1  0  0  0
  1 22  1  0  0  0
  1 23  1  0  0  0
  2  3  1  0  0  0
  2 24  1  0  0  0
  2 25  1  0  0  0
  3  4  1  0  0  0
  3 26  1  0  0  0
  3 27  1  0  0  0
  4  5  1  0  0  0
  4 28  1  0  0  0
  4 29  1  0  0  0
  5  6  1  0  0  0
  5 30  1  0  0  0
  5 31  1  0  0  0
  6  7  1  0  0  0
  6 32  1  0  0  0
  6 33  1  0  0  0
  7  8  1  0  0  0
  7 34  1  0  0  0
  7 35  1  0  0  0
  8  9  1  0  0  0
  8 36  1  0  0  0
  8 37  1  0  0  0
  9 10  1  0  0  0
  9 38  1  0  0  0
  9 39  1  0  0  0
 10 11  1  0  0  0
 10 40  1  0  0  0
 10 41  1  0  0  0
 11 12  1  0  0  0
 11 42  1  0  0  0
 11 43  1  0  0  0
 12 13  1  0  0  0
 12 44  1  0  0  0
 12 45  1  0  0  0
 13 14  1  0  0  0
 13 46  1  0  0  0
 13 47  1  0  0  0
 14 15  1  0  0  0
 14 48  1  0  0  0
 14 49  1  0  0  0
 15 16  1  0  0  0
 15 50  1  0  0  0
 15 51  1  0  0  0
 16 17  1  0  0  0
 16 52  1  0  0  0
 16 53  1  0  0  0
 17 18  1  0  0  0
 17 19  1  0  0  0
 17 54  1  0  0  0
 18 55  1  0  0  0
 18 56  1  0  0  0
 18 57  1  0  0  0
 19 20  1  0  0  0
 19 58  1  0  0  0
 19 59  1  0  0  0
 20 60  1  0  0  0
 20 61  1  0  0  0
 20 62  1  0  0  0
M  END
>  <i_m_Spin_multiplicity> (1)
1

>  <s_j_Task> (1)
Single Point

>  <s_j_QM_Method> (1)
DFT(b3lyp-d3)

>  <s_j_QM_Basis> (1)
cc-pvtz(-f)

>  <i_j_Number_of_canonical_orbitals> (1)
832

>  <i_j_Geometry_convergence_category> (1)
3

>  <r_j_Gas_Phase_Energy> (1)
-787.792969561512

>  <r_j_Final_Energy> (1)
-787.792969561512

>  <r_j_HOMO> (1)
-0.244500776867264

>  <r_j_LUMO> (1)
0.0035850247332897

>  <r_j_Polarizability> (1)
250.224470728499

>  <r_j_QM_Dipole_(debye)> (1)
0.065663775176833

>  <r_j_QM_Dipole_X_(debye)> (1)
-0.0200682962801274

>  <r_j_QM_Dipole_Y_(debye)> (1)
-0.0311927780135023

>  <r_j_QM_Dipole_Z_(debye)> (1)
0.0541849190705963

>  <r_j_Lowest_Frequency_(cm-1)> (1)
23.4179684887399

>  <r_j_Highest_Frequency_(cm-1)> (1)
3060.63334231206

>  <r_j_2nd_Lowest_Frequency_(cm-1)> (1)
45.7369370783714

>  <i_j_Num_Negative_Frequencies> (1)
0

>  <r_j_Zero_Point_Energy_(kcal/mol)> (1)
368.402115796847

>  <r_j_Entropy_(cal/mol/K)_298.15K_1.00E+00atm> (1)
164.920093123448

>  <r_j_Enthalpy_(kcal/mol)_298.15K_1.00E+00atm> (1)
16.2022855116811

>  <r_j_Free_Energy_(kcal/mol)_298.15K_1.00E+00atm> (1)
-32.9686402530749

>  <r_j_Internal_Energy_(kcal/mol)_298.15K_1.00E+00atm> (1)
15.6097999228539

>  <r_j_Heat_Capacity_(cal/mol/K)_298.15K_1.00E+00atm> (1)
95.6130666917279

>  <r_j_ln(Q)_298.15K_1.00E+00atm> (1)
55.6446281137922

>  <r_j_Total_Internal_Energy_(au)_298.15K_1.00E+00atm> (1)
-787.181007616587

>  <r_j_Total_Enthalpy_(au)_298.15K_1.00E+00atm> (1)
-787.180063430695

>  <r_j_Total_Free_Energy_(au)_298.15K_1.00E+00atm> (1)
-787.258422289191

>  <r_lp_tautomer_probability> (1)
1

>  <r_epik_Ionization_Penalty> (1)
  0.0000

>  <r_epik_Ionization_Penalty_Charging> (1)
  0.0000

>  <r_epik_Ionization_Penalty_Neutral> (1)
  0.0000

>  <r_epik_State_Penalty> (1)
  0.0000

>  <r_epik_Charging_Adjusted_Penalty> (1)
0

>  <i_epik_Tot_Q> (1)
0

>  <i_epik_Tot_abs_Q> (1)
0

>  <s_lp_Force_Field> (1)
S-OPLS

>  <r_lp_Energy> (1)
10.731039

>  <b_lp_Chiralities_Consistent> (1)
1

$$$$
