94485_n-Tetratriacontanoic acid
                    3D
 Schrodinger Suite 2021-3.
103102  0  0  1  0            999 V2000
  -12.8473   13.4081   -3.1284 C   0  0  0  0  0  0
  -11.6548   12.8477   -2.3474 C   0  0  0  0  0  0
  -11.7884   13.0490   -0.8312 C   0  0  0  0  0  0
  -10.5708   12.5808   -0.0191 C   0  0  0  0  0  0
  -10.3266   11.0663   -0.0540 C   0  0  0  0  0  0
   -9.1059   10.6330    0.7660 C   0  0  0  0  0  0
   -8.8509    9.1218    0.7257 C   0  0  0  0  0  0
   -7.5790    8.6981    1.4688 C   0  0  0  0  0  0
   -7.3120    7.1896    1.4103 C   0  0  0  0  0  0
   -5.9877    6.7804    2.0647 C   0  0  0  0  0  0
   -5.7030    5.2763    1.9805 C   0  0  0  0  0  0
   -4.3288    4.8859    2.5362 C   0  0  0  0  0  0
   -4.0248    3.3874    2.4206 C   0  0  0  0  0  0
   -2.6008    3.0299    2.8659 C   0  0  0  0  0  0
   -2.2662    1.5315    2.8102 C   0  0  0  0  0  0
   -2.4117    0.9063    1.4130 C   0  0  0  0  0  0
   -1.7970   -0.4982    1.2901 C   0  0  0  0  0  0
   -0.2633   -0.5020    1.2339 C   0  0  0  0  0  0
    0.3405   -1.9059    1.1145 C   0  0  0  0  0  0
    1.8682   -1.8896    0.9696 C   0  0  0  0  0  0
    2.5048   -3.2766    0.7929 C   0  0  0  0  0  0
    2.4338   -4.1768    2.0337 C   0  0  0  0  0  0
    3.1022   -5.5395    1.8195 C   0  0  0  0  0  0
    3.1083   -6.4313    3.0664 C   0  0  0  0  0  0
    3.7453   -7.8032    2.8179 C   0  0  0  0  0  0
    3.8340   -8.6868    4.0673 C   0  0  0  0  0  0
    4.4411  -10.0658    3.7835 C   0  0  0  0  0  0
    4.6151  -10.9415    5.0294 C   0  0  0  0  0  0
    5.1941  -12.3269    4.7175 C   0  0  0  0  0  0
    5.4540  -13.1876    5.9587 C   0  0  0  0  0  0
    6.0088  -14.5805    5.6305 C   0  0  0  0  0  0
    6.3243  -15.4423    6.8621 C   0  0  0  0  0  0
    7.4409  -14.9105    7.7633 C   0  0  0  0  0  0
    8.0014  -15.9813    8.7855 C   0  0  0  0  0  0
    8.5391  -15.4956    9.8098 O   0  0  0  0  0  0
    7.8733  -17.1831    8.4352 O   0  5  0  0  0  0
  -12.7315   13.2536   -4.2064 H   0  0  0  0  0  0
  -12.9620   14.4846   -2.9555 H   0  0  0  0  0  0
  -13.7817   12.9243   -2.8208 H   0  0  0  0  0  0
  -11.5452   11.7801   -2.5740 H   0  0  0  0  0  0
  -10.7290   13.3289   -2.6926 H   0  0  0  0  0  0
  -11.9599   14.1161   -0.6330 H   0  0  0  0  0  0
  -12.6881   12.5266   -0.4747 H   0  0  0  0  0  0
   -9.6729   13.0996   -0.3854 H   0  0  0  0  0  0
  -10.6952   12.8942    1.0264 H   0  0  0  0  0  0
  -11.2220   10.5462    0.3165 H   0  0  0  0  0  0
  -10.1900   10.7331   -1.0911 H   0  0  0  0  0  0
   -8.2163   11.1594    0.3909 H   0  0  0  0  0  0
   -9.2298   10.9559    1.8097 H   0  0  0  0  0  0
   -9.7173    8.5930    1.1482 H   0  0  0  0  0  0
   -8.7798    8.7955   -0.3220 H   0  0  0  0  0  0
   -6.7190    9.2332    1.0406 H   0  0  0  0  0  0
   -7.6417    9.0189    2.5185 H   0  0  0  0  0  0
   -8.1420    6.6512    1.8898 H   0  0  0  0  0  0
   -7.3082    6.8645    0.3598 H   0  0  0  0  0  0
   -5.1659    7.3294    1.5824 H   0  0  0  0  0  0
   -5.9840    7.0962    3.1178 H   0  0  0  0  0  0
   -6.4882    4.7230    2.5153 H   0  0  0  0  0  0
   -5.7692    4.9553    0.9307 H   0  0  0  0  0  0
   -3.5532    5.4515    1.9994 H   0  0  0  0  0  0
   -4.2543    5.1964    3.5882 H   0  0  0  0  0  0
   -4.7510    2.8161    3.0169 H   0  0  0  0  0  0
   -4.1748    3.0753    1.3788 H   0  0  0  0  0  0
   -1.8852    3.5778    2.2356 H   0  0  0  0  0  0
   -2.4435    3.3954    3.8900 H   0  0  0  0  0  0
   -1.2387    1.3944    3.1693 H   0  0  0  0  0  0
   -2.9082    0.9831    3.5142 H   0  0  0  0  0  0
   -3.4752    0.8571    1.1502 H   0  0  0  0  0  0
   -1.9462    1.5678    0.6670 H   0  0  0  0  0  0
   -2.1365   -1.1205    2.1307 H   0  0  0  0  0  0
   -2.1799   -0.9829    0.3819 H   0  0  0  0  0  0
    0.0608    0.1062    0.3767 H   0  0  0  0  0  0
    0.1496   -0.0106    2.1251 H   0  0  0  0  0  0
    0.0508   -2.4968    1.9931 H   0  0  0  0  0  0
   -0.0970   -2.4191    0.2455 H   0  0  0  0  0  0
    2.1294   -1.2643    0.1047 H   0  0  0  0  0  0
    2.3120   -1.3948    1.8458 H   0  0  0  0  0  0
    2.0271   -3.7882   -0.0555 H   0  0  0  0  0  0
    3.5597   -3.1511    0.5134 H   0  0  0  0  0  0
    2.9127   -3.6620    2.8794 H   0  0  0  0  0  0
    1.3876   -4.3342    2.3277 H   0  0  0  0  0  0
    2.5943   -6.0654    0.9980 H   0  0  0  0  0  0
    4.1378   -5.3863    1.4828 H   0  0  0  0  0  0
    3.6469   -5.9186    3.8763 H   0  0  0  0  0  0
    2.0782   -6.5667    3.4267 H   0  0  0  0  0  0
    3.1748   -8.3299    2.0389 H   0  0  0  0  0  0
    4.7553   -7.6627    2.4062 H   0  0  0  0  0  0
    4.4339   -8.1735    4.8326 H   0  0  0  0  0  0
    2.8316   -8.8109    4.5022 H   0  0  0  0  0  0
    3.8116  -10.5929    3.0516 H   0  0  0  0  0  0
    5.4194   -9.9354    3.2980 H   0  0  0  0  0  0
    5.2706  -10.4260    5.7459 H   0  0  0  0  0  0
    3.6458  -11.0561    5.5363 H   0  0  0  0  0  0
    4.5116  -12.8573    4.0362 H   0  0  0  0  0  0
    6.1361  -12.2055    4.1621 H   0  0  0  0  0  0
    6.1560  -12.6654    6.6210 H   0  0  0  0  0  0
    4.5211  -13.2961    6.5324 H   0  0  0  0  0  0
    5.2869  -15.0989    4.9783 H   0  0  0  0  0  0
    6.9260  -14.4615    5.0326 H   0  0  0  0  0  0
    5.4053  -15.5768    7.4534 H   0  0  0  0  0  0
    6.6290  -16.4495    6.5576 H   0  0  0  0  0  0
    8.2894  -14.5916    7.1343 H   0  0  0  0  0  0
    7.1328  -14.0245    8.3319 H   0  0  0  0  0  0
  1  2  1  0  0  0
  1 37  1  0  0  0
  1 38  1  0  0  0
  1 39  1  0  0  0
  2  3  1  0  0  0
  2 40  1  0  0  0
  2 41  1  0  0  0
  3  4  1  0  0  0
  3 42  1  0  0  0
  3 43  1  0  0  0
  4  5  1  0  0  0
  4 44  1  0  0  0
  4 45  1  0  0  0
  5  6  1  0  0  0
  5 46  1  0  0  0
  5 47  1  0  0  0
  6  7  1  0  0  0
  6 48  1  0  0  0
  6 49  1  0  0  0
  7  8  1  0  0  0
  7 50  1  0  0  0
  7 51  1  0  0  0
  8  9  1  0  0  0
  8 52  1  0  0  0
  8 53  1  0  0  0
  9 10  1  0  0  0
  9 54  1  0  0  0
  9 55  1  0  0  0
 10 11  1  0  0  0
 10 56  1  0  0  0
 10 57  1  0  0  0
 11 12  1  0  0  0
 11 58  1  0  0  0
 11 59  1  0  0  0
 12 13  1  0  0  0
 12 60  1  0  0  0
 12 61  1  0  0  0
 13 14  1  0  0  0
 13 62  1  0  0  0
 13 63  1  0  0  0
 14 15  1  0  0  0
 14 64  1  0  0  0
 14 65  1  0  0  0
 15 16  1  0  0  0
 15 66  1  0  0  0
 15 67  1  0  0  0
 16 17  1  0  0  0
 16 68  1  0  0  0
 16 69  1  0  0  0
 17 18  1  0  0  0
 17 70  1  0  0  0
 17 71  1  0  0  0
 18 19  1  0  0  0
 18 72  1  0  0  0
 18 73  1  0  0  0
 19 20  1  0  0  0
 19 74  1  0  0  0
 19 75  1  0  0  0
 20 21  1  0  0  0
 20 76  1  0  0  0
 20 77  1  0  0  0
 21 22  1  0  0  0
 21 78  1  0  0  0
 21 79  1  0  0  0
 22 23  1  0  0  0
 22 80  1  0  0  0
 22 81  1  0  0  0
 23 24  1  0  0  0
 23 82  1  0  0  0
 23 83  1  0  0  0
 24 25  1  0  0  0
 24 84  1  0  0  0
 24 85  1  0  0  0
 25 26  1  0  0  0
 25 86  1  0  0  0
 25 87  1  0  0  0
 26 27  1  0  0  0
 26 88  1  0  0  0
 26 89  1  0  0  0
 27 28  1  0  0  0
 27 90  1  0  0  0
 27 91  1  0  0  0
 28 29  1  0  0  0
 28 92  1  0  0  0
 28 93  1  0  0  0
 29 30  1  0  0  0
 29 94  1  0  0  0
 29 95  1  0  0  0
 30 31  1  0  0  0
 30 96  1  0  0  0
 30 97  1  0  0  0
 31 32  1  0  0  0
 31 98  1  0  0  0
 31 99  1  0  0  0
 32 33  1  0  0  0
 32100  1  0  0  0
 32101  1  0  0  0
 33 34  1  0  0  0
 33102  1  0  0  0
 33103  1  0  0  0
 34 35  2  0  0  0
 34 36  1  0  0  0
M  CHG  1  36  -1
M  END
> <i_m_Spin_multiplicity>
1

> <s_j_Task>
Single Point

> <s_j_QM_Method>
DFT(b3lyp-d3)

> <s_j_QM_Basis>
6-31g**

> <i_j_Number_of_canonical_orbitals>
875

> <i_j_Geometry_convergence_category>
3

> <r_j_Gas_Phase_Energy>
-1486.72238969949

> <r_j_Final_Energy>
-1486.72238969949

> <r_j_HOMO>
-0.00595653849275579

> <r_j_LUMO>
0.107645707305446

> <r_j_Polarizability>
386.645389223128

> <r_j_QM_Dipole_(debye)>
85.4317616477269

> <r_j_QM_Dipole_X_(debye)>
-42.2374616694749

> <r_j_QM_Dipole_Y_(debye)>
68.5981709390491

> <r_j_QM_Dipole_Z_(debye)>
-28.4407045231068

> <r_j_Lowest_Frequency_(cm-1)>
-10.4399826245511

> <r_j_Highest_Frequency_(cm-1)>
3106.06239616927

> <r_j_2nd_Lowest_Frequency_(cm-1)>
7.46515815176218

> <i_j_Num_Negative_Frequencies>
1

> <r_j_Zero_Point_Energy_(kcal/mol)>
606.299202542115

> <r_j_Entropy_(cal/mol/K)_298.15K_1.00E+00atm>
249.05757650263

> <r_j_Enthalpy_(kcal/mol)_298.15K_1.00E+00atm>
27.8171007007873

> <r_j_Free_Energy_(kcal/mol)_298.15K_1.00E+00atm>
-46.4394157334719

> <r_j_Internal_Energy_(kcal/mol)_298.15K_1.00E+00atm>
27.22461511196

> <r_j_Heat_Capacity_(cal/mol/K)_298.15K_1.00E+00atm>
163.765421949089

> <r_j_ln(Q)_298.15K_1.00E+00atm>
78.3806671574761

> <r_j_Total_Internal_Energy_(au)_298.15K_1.00E+00atm>
-1485.71280522636

> <r_j_Total_Enthalpy_(au)_298.15K_1.00E+00atm>
-1485.71186104046

> <r_j_Total_Free_Energy_(au)_298.15K_1.00E+00atm>
-1485.83019633257

> <r_epik_Ionization_Penalty>
  0.0049

> <r_epik_Ionization_Penalty_Charging>
  0.0049

> <r_epik_Ionization_Penalty_Neutral>
  0.0000

> <r_epik_State_Penalty>
  0.0035

> <r_epik_Charging_Adjusted_Penalty>
0.00839777765143097

> <i_epik_Tot_Q>
-1

> <i_epik_Tot_abs_Q>
1

> <s_lp_Force_Field>
S-OPLS

> <r_lp_Energy>
22.29698

> <b_lp_Chiralities_Consistent>
1

$$$$
