9543670_Hexacosanedioic acid
                    3D
 Schrodinger Suite 2021-3.
 79 78  0  0  1  0            999 V2000
    0.5873    0.4920    0.8657 C   0  0  0  0  0  0
    2.1218    0.4480    0.8493 C   0  0  0  0  0  0
    2.6948   -0.9526    0.5697 C   0  0  0  0  0  0
    2.5603   -1.3810   -0.9003 C   0  0  0  0  0  0
    2.8974   -2.8539   -1.1708 C   0  0  0  0  0  0
    4.3478   -3.2541   -0.8708 C   0  0  0  0  0  0
    4.6520   -4.7038   -1.2652 C   0  0  0  0  0  0
    6.0927   -5.1434   -0.9825 C   0  0  0  0  0  0
    6.3748   -6.5865   -1.4163 C   0  0  0  0  0  0
    7.8117   -7.0523   -1.1577 C   0  0  0  0  0  0
    8.0797   -8.4901   -1.6215 C   0  0  0  0  0  0
    9.5200   -8.9604   -1.3914 C   0  0  0  0  0  0
    9.8067  -10.3821   -1.8740 C   0  0  0  0  0  0
   11.3398  -10.7639   -1.8581 C   0  0  0  0  0  0
   11.5770  -11.9919   -1.7589 O   0  0  0  0  0  0
   12.1363   -9.7964   -1.9805 O   0  5  0  0  0  0
    0.0098    1.9099    0.9308 C   0  0  0  0  0  0
   -1.5228    1.9328    0.9714 C   0  0  0  0  0  0
   -2.1192    3.3402    0.8612 C   0  0  0  0  0  0
   -3.6528    3.3501    0.9182 C   0  0  0  0  0  0
   -4.2872    4.7369    0.7255 C   0  0  0  0  0  0
   -4.0987    5.3112   -0.6873 C   0  0  0  0  0  0
   -4.8655    6.6155   -0.9548 C   0  0  0  0  0  0
   -4.3754    7.8140   -0.1286 C   0  0  0  0  0  0
   -5.1238    9.1250   -0.4183 C   0  0  0  0  0  0
   -4.9148    9.6619   -1.8398 C   0  0  0  0  0  0
   -5.6391   11.0012   -2.0698 C   0  0  0  0  0  0
   -5.4482   11.5290   -3.4726 C   0  0  0  0  0  0
   -4.9068   12.5684   -3.7782 O   0  0  0  0  0  0
   -5.9564   10.6749   -4.4006 O   0  0  0  0  0  0
    0.1909   -0.0035   -0.0304 H   0  0  0  0  0  0
    0.2211   -0.0959    1.7196 H   0  0  0  0  0  0
    2.4998    1.1484    0.0902 H   0  0  0  0  0  0
    2.4959    0.8175    1.8135 H   0  0  0  0  0  0
    3.7517   -0.9784    0.8592 H   0  0  0  0  0  0
    2.1866   -1.6865    1.2125 H   0  0  0  0  0  0
    1.5350   -1.1915   -1.2437 H   0  0  0  0  0  0
    3.2071   -0.7391   -1.5160 H   0  0  0  0  0  0
    2.2189   -3.4915   -0.5853 H   0  0  0  0  0  0
    2.6832   -3.0762   -2.2253 H   0  0  0  0  0  0
    5.0297   -2.5784   -1.4077 H   0  0  0  0  0  0
    4.5629   -3.1172    0.1974 H   0  0  0  0  0  0
    3.9583   -5.3746   -0.7373 H   0  0  0  0  0  0
    4.4392   -4.8364   -2.3361 H   0  0  0  0  0  0
    6.7885   -4.4657   -1.4982 H   0  0  0  0  0  0
    6.3050   -5.0344    0.0911 H   0  0  0  0  0  0
    5.6756   -7.2616   -0.9006 H   0  0  0  0  0  0
    6.1512   -6.6879   -2.4887 H   0  0  0  0  0  0
    8.5123   -6.3735   -1.6654 H   0  0  0  0  0  0
    8.0352   -6.9667   -0.0840 H   0  0  0  0  0  0
    7.3778   -9.1677   -1.1105 H   0  0  0  0  0  0
    7.8401   -8.5688   -2.6934 H   0  0  0  0  0  0
   10.2328   -8.2996   -1.8987 H   0  0  0  0  0  0
    9.7590   -8.8827   -0.3199 H   0  0  0  0  0  0
    9.2491  -11.1259   -1.2893 H   0  0  0  0  0  0
    9.4561  -10.4865   -2.9144 H   0  0  0  0  0  0
    0.4092    2.4362    1.8096 H   0  0  0  0  0  0
    0.3575    2.4771    0.0552 H   0  0  0  0  0  0
   -1.9135    1.3164    0.1488 H   0  0  0  0  0  0
   -1.8713    1.4540    1.8977 H   0  0  0  0  0  0
   -1.7225    3.9762    1.6660 H   0  0  0  0  0  0
   -1.7762    3.7921   -0.0786 H   0  0  0  0  0  0
   -4.0469    2.6665    0.1520 H   0  0  0  0  0  0
   -3.9728    2.9370    1.8843 H   0  0  0  0  0  0
   -5.3640    4.6711    0.9353 H   0  0  0  0  0  0
   -3.8727    5.4274    1.4721 H   0  0  0  0  0  0
   -3.0322    5.4824   -0.8830 H   0  0  0  0  0  0
   -4.4224    4.5553   -1.4160 H   0  0  0  0  0  0
   -4.7836    6.8508   -2.0229 H   0  0  0  0  0  0
   -5.9363    6.4575   -0.7589 H   0  0  0  0  0  0
   -4.4744    7.5861    0.9393 H   0  0  0  0  0  0
   -3.3010    7.9621   -0.3099 H   0  0  0  0  0  0
   -6.1991    8.9760   -0.2430 H   0  0  0  0  0  0
   -4.8008    9.8893    0.3013 H   0  0  0  0  0  0
   -3.8407    9.7945   -2.0259 H   0  0  0  0  0  0
   -5.2745    8.9410   -2.5800 H   0  0  0  0  0  0
   -6.7144   10.8656   -1.8991 H   0  0  0  0  0  0
   -5.2781   11.7692   -1.3814 H   0  0  0  0  0  0
   -5.7742   11.0783   -5.2659 H   0  0  0  0  0  0
  1  2  1  0  0  0
  1 17  1  0  0  0
  1 31  1  0  0  0
  1 32  1  0  0  0
  2  3  1  0  0  0
  2 33  1  0  0  0
  2 34  1  0  0  0
  3  4  1  0  0  0
  3 35  1  0  0  0
  3 36  1  0  0  0
  4  5  1  0  0  0
  4 37  1  0  0  0
  4 38  1  0  0  0
  5  6  1  0  0  0
  5 39  1  0  0  0
  5 40  1  0  0  0
  6  7  1  0  0  0
  6 41  1  0  0  0
  6 42  1  0  0  0
  7  8  1  0  0  0
  7 43  1  0  0  0
  7 44  1  0  0  0
  8  9  1  0  0  0
  8 45  1  0  0  0
  8 46  1  0  0  0
  9 10  1  0  0  0
  9 47  1  0  0  0
  9 48  1  0  0  0
 10 11  1  0  0  0
 10 49  1  0  0  0
 10 50  1  0  0  0
 11 12  1  0  0  0
 11 51  1  0  0  0
 11 52  1  0  0  0
 12 13  1  0  0  0
 12 53  1  0  0  0
 12 54  1  0  0  0
 13 14  1  0  0  0
 13 55  1  0  0  0
 13 56  1  0  0  0
 14 15  2  0  0  0
 14 16  1  0  0  0
 17 18  1  0  0  0
 17 57  1  0  0  0
 17 58  1  0  0  0
 18 19  1  0  0  0
 18 59  1  0  0  0
 18 60  1  0  0  0
 19 20  1  0  0  0
 19 61  1  0  0  0
 19 62  1  0  0  0
 20 21  1  0  0  0
 20 63  1  0  0  0
 20 64  1  0  0  0
 21 22  1  0  0  0
 21 65  1  0  0  0
 21 66  1  0  0  0
 22 23  1  0  0  0
 22 67  1  0  0  0
 22 68  1  0  0  0
 23 24  1  0  0  0
 23 69  1  0  0  0
 23 70  1  0  0  0
 24 25  1  0  0  0
 24 71  1  0  0  0
 24 72  1  0  0  0
 25 26  1  0  0  0
 25 73  1  0  0  0
 25 74  1  0  0  0
 26 27  1  0  0  0
 26 75  1  0  0  0
 26 76  1  0  0  0
 27 28  1  0  0  0
 27 77  1  0  0  0
 27 78  1  0  0  0
 28 29  2  0  0  0
 28 30  1  0  0  0
 30 79  1  0  0  0
M  END
>  <s_lp_Force_Field> (1)
S-OPLS

>  <r_lp_Energy> (1)
16.8634

>  <b_lp_Chiralities_Consistent> (1)
1

>  <r_epik_Ionization_Penalty> (1)
  2.4441

>  <r_epik_Ionization_Penalty_Charging> (1)
  0.0024

>  <r_epik_Ionization_Penalty_Neutral> (1)
  2.4417

>  <r_epik_State_Penalty> (1)
  2.6025

>  <r_epik_Charging_Adjusted_Penalty> (1)
2.60492

>  <i_epik_Tot_Q> (1)
-1

>  <i_epik_Tot_abs_Q> (1)
1

>  <i_m_Spin_multiplicity> (1)
1

>  <s_j_Task> (1)
Single Point

>  <s_j_QM_Method> (1)
DFT(b3lyp-d3)

>  <s_j_QM_Basis> (1)
6-31g**

>  <i_j_Number_of_canonical_orbitals> (1)
695

>  <i_j_Geometry_convergence_category> (1)
0

>  <r_j_Gas_Phase_Energy> (1)
-1321.42159819066

>  <r_j_Final_Energy> (1)
-1321.42159819066

>  <r_j_HOMO> (1)
-0.00470694507739167

>  <r_j_LUMO> (1)
0.0309511335769054

>  <r_j_Polarizability> (1)
299.652132958171

>  <r_j_QM_Dipole_(debye)> (1)
69.2163304024277

>  <r_j_QM_Dipole_X_(debye)> (1)
-47.7247247719211

>  <r_j_QM_Dipole_Y_(debye)> (1)
49.9595223518799

>  <r_j_QM_Dipole_Z_(debye)> (1)
4.15898619791247

>  <r_j_Lowest_Frequency_(cm-1)> (1)
-14.7942002580399

>  <r_j_Highest_Frequency_(cm-1)> (1)
3753.22152412919

>  <r_j_2nd_Lowest_Frequency_(cm-1)> (1)
6.79645145683515

>  <i_j_Num_Negative_Frequencies> (1)
1

>  <r_j_Zero_Point_Energy_(kcal/mol)> (1)
454.490433340333

>  <r_j_Entropy_(cal/mol/K)_298.15K_1.00E+00atm> (1)
210.763404475812

>  <r_j_Enthalpy_(kcal/mol)_298.15K_1.00E+00atm> (1)
22.1862296171777

>  <r_j_Free_Energy_(kcal/mol)_298.15K_1.00E+00atm> (1)
-40.6528794272855

>  <r_j_Internal_Energy_(kcal/mol)_298.15K_1.00E+00atm> (1)
21.5937440283504

>  <r_j_Heat_Capacity_(cal/mol/K)_298.15K_1.00E+00atm> (1)
129.74842950443

>  <r_j_ln(Q)_298.15K_1.00E+00atm> (1)
68.6141236072105

>  <r_j_Total_Internal_Energy_(au)_298.15K_1.00E+00atm> (1)
-1320.66290975626

>  <r_j_Total_Enthalpy_(au)_298.15K_1.00E+00atm> (1)
-1320.66196557036

>  <r_j_Total_Free_Energy_(au)_298.15K_1.00E+00atm> (1)
-1320.76210606553

$$$$
