962_Particulate Water
                    3D
 Schrodinger Suite 2021-3.
  3  2  0  0  1  0            999 V2000
    2.5369   -0.1870    0.0000 O   0  0  0  0  0  0
    3.2963    0.4089    0.0000 H   0  0  0  0  0  0
    1.7775    0.4089    0.0000 H   0  0  0  0  0  0
  1  2  1  0  0  0
  1  3  1  0  0  0
M  END
>  <i_m_Spin_multiplicity> (1)
1

>  <s_j_Task> (1)
Single Point

>  <s_j_QM_Method> (1)
DFT(b3lyp-d3)

>  <s_j_QM_Basis> (1)
cc-pvtz(-f)

>  <i_j_Number_of_canonical_orbitals> (1)
41

>  <r_j_Gas_Phase_Energy> (1)
-76.4584989521749

>  <r_j_Final_Energy> (1)
-76.4584989521749

>  <r_j_Polarizability> (1)
7.09322519271724

>  <r_j_QM_Dipole_(debye)> (1)
1.93793535644769

>  <r_j_QM_Dipole_X_(debye)> (1)
3.87540888446629e-05

>  <r_j_QM_Dipole_Y_(debye)> (1)
1.93793535606012

>  <r_j_QM_Dipole_Z_(debye)> (1)
-5.53118660523693e-07

>  <r_j_Zero_Point_Energy_(kcal/mol)> (1)
13.2564965032575

>  <r_j_Entropy_(cal/mol/K)_298.15K_1.00E+00atm> (1)
45.11621242053

>  <r_j_Enthalpy_(kcal/mol)_298.15K_1.00E+00atm> (1)
2.37149437829981

>  <r_j_Free_Energy_(kcal/mol)_298.15K_1.00E+00atm> (1)
-11.0799043548812

>  <r_j_Internal_Energy_(kcal/mol)_298.15K_1.00E+00atm> (1)
1.77900878947254

>  <r_j_Heat_Capacity_(cal/mol/K)_298.15K_1.00E+00atm> (1)
6.00343190090078

>  <r_j_ln(Q)_298.15K_1.00E+00atm> (1)
18.7007153656041

>  <r_j_Total_Internal_Energy_(au)_298.15K_1.00E+00atm> (1)
-76.4345383491696

>  <r_j_Total_Enthalpy_(au)_298.15K_1.00E+00atm> (1)
-76.4335941632773

>  <r_j_Total_Free_Energy_(au)_298.15K_1.00E+00atm> (1)
-76.4550303317756

>  <r_j_HOMO> (1)
-0.308586817931397

>  <r_j_LUMO> (1)
0.0233496888138155

>  <r_j_Lowest_Frequency_(cm-1)> (1)
1663.64396589958

>  <r_j_Highest_Frequency_(cm-1)> (1)
3850.29368574521

>  <r_j_2nd_Lowest_Frequency_(cm-1)> (1)
3759.11660232952

>  <i_j_Num_Negative_Frequencies> (1)
0

>  <i_j_Geometry_convergence_category> (1)
0

$$$$
