985_Palmitic acid
                    3D
 Schrodinger Suite 2021-3.
 49 48  0  0  1  0            999 V2000
    3.0904    6.0544    4.1310 C   0  0  0  0  0  0
    1.5982    5.7781    3.9230 C   0  0  0  0  0  0
    1.3186    4.8513    2.7336 C   0  0  0  0  0  0
   -0.1756    4.5690    2.5278 C   0  0  0  0  0  0
   -0.5005    3.7152    1.2922 C   0  0  0  0  0  0
    0.0415    2.2805    1.3468 C   0  0  0  0  0  0
   -0.3721    1.4399    0.1313 C   0  0  0  0  0  0
    0.0956   -0.0232    0.1788 C   0  0  0  0  0  0
    1.6190   -0.2084    0.1589 C   0  0  0  0  0  0
    2.0528   -1.6763    0.0673 C   0  0  0  0  0  0
    3.5741   -1.8665    0.0743 C   0  0  0  0  0  0
    4.0140   -3.3281   -0.0675 C   0  0  0  0  0  0
    5.5367   -3.5167   -0.0438 C   0  0  0  0  0  0
    5.9948   -4.9740   -0.2064 C   0  0  0  0  0  0
    5.6528   -5.6222   -1.5496 C   0  0  0  0  0  0
    6.4489   -6.9605   -1.8351 C   0  0  0  0  0  0
    5.8896   -7.7385   -2.6446 O   0  0  0  0  0  0
    7.5567   -7.0683   -1.2476 O   0  5  0  0  0  0
    3.2633    6.7187    4.9846 H   0  0  0  0  0  0
    3.5305    6.5270    3.2453 H   0  0  0  0  0  0
    3.6411    5.1248    4.3145 H   0  0  0  0  0  0
    1.1764    5.3321    4.8344 H   0  0  0  0  0  0
    1.0646    6.7275    3.7757 H   0  0  0  0  0  0
    1.7325    5.2996    1.8183 H   0  0  0  0  0  0
    1.8617    3.9090    2.8810 H   0  0  0  0  0  0
   -0.5757    4.0746    3.4249 H   0  0  0  0  0  0
   -0.7069    5.5278    2.4482 H   0  0  0  0  0  0
   -1.5913    3.6767    1.1647 H   0  0  0  0  0  0
   -0.1090    4.2149    0.3941 H   0  0  0  0  0  0
    1.1346    2.3021    1.4204 H   0  0  0  0  0  0
   -0.3169    1.7919    2.2651 H   0  0  0  0  0  0
   -1.4674    1.4645    0.0410 H   0  0  0  0  0  0
    0.0179    1.9137   -0.7815 H   0  0  0  0  0  0
   -0.3166   -0.5076    1.0761 H   0  0  0  0  0  0
   -0.3355   -0.5592   -0.6777 H   0  0  0  0  0  0
    2.0388    0.3471   -0.6930 H   0  0  0  0  0  0
    2.0624    0.2387    1.0588 H   0  0  0  0  0  0
    1.6119   -2.2391    0.9031 H   0  0  0  0  0  0
    1.6356   -2.1212   -0.8475 H   0  0  0  0  0  0
    4.0149   -1.2763   -0.7430 H   0  0  0  0  0  0
    3.9865   -1.4459    1.0040 H   0  0  0  0  0  0
    3.5642   -3.9250    0.7402 H   0  0  0  0  0  0
    3.6138   -3.7382   -1.0032 H   0  0  0  0  0  0
    5.9788   -2.9095   -0.8492 H   0  0  0  0  0  0
    5.9262   -3.0999    0.8995 H   0  0  0  0  0  0
    7.0821   -5.0490   -0.0962 H   0  0  0  0  0  0
    5.5724   -5.5773    0.6119 H   0  0  0  0  0  0
    4.5814   -5.8348   -1.6500 H   0  0  0  0  0  0
    5.9030   -4.9199   -2.3627 H   0  0  0  0  0  0
  1  2  1  0  0  0
  1 19  1  0  0  0
  1 20  1  0  0  0
  1 21  1  0  0  0
  2  3  1  0  0  0
  2 22  1  0  0  0
  2 23  1  0  0  0
  3  4  1  0  0  0
  3 24  1  0  0  0
  3 25  1  0  0  0
  4  5  1  0  0  0
  4 26  1  0  0  0
  4 27  1  0  0  0
  5  6  1  0  0  0
  5 28  1  0  0  0
  5 29  1  0  0  0
  6  7  1  0  0  0
  6 30  1  0  0  0
  6 31  1  0  0  0
  7  8  1  0  0  0
  7 32  1  0  0  0
  7 33  1  0  0  0
  8  9  1  0  0  0
  8 34  1  0  0  0
  8 35  1  0  0  0
  9 10  1  0  0  0
  9 36  1  0  0  0
  9 37  1  0  0  0
 10 11  1  0  0  0
 10 38  1  0  0  0
 10 39  1  0  0  0
 11 12  1  0  0  0
 11 40  1  0  0  0
 11 41  1  0  0  0
 12 13  1  0  0  0
 12 42  1  0  0  0
 12 43  1  0  0  0
 13 14  1  0  0  0
 13 44  1  0  0  0
 13 45  1  0  0  0
 14 15  1  0  0  0
 14 46  1  0  0  0
 14 47  1  0  0  0
 15 16  1  0  0  0
 15 48  1  0  0  0
 15 49  1  0  0  0
 16 17  2  0  0  0
 16 18  1  0  0  0
M  END
>  <s_lp_Force_Field> (1)
S-OPLS

>  <r_lp_Energy> (1)
11.714962

>  <b_lp_Chiralities_Consistent> (1)
1

>  <r_epik_Ionization_Penalty> (1)
  0.0049

>  <r_epik_Ionization_Penalty_Charging> (1)
  0.0049

>  <r_epik_Ionization_Penalty_Neutral> (1)
  0.0000

>  <r_epik_State_Penalty> (1)
  0.0035

>  <r_epik_Charging_Adjusted_Penalty> (1)
0.00839777765143097

>  <i_epik_Tot_Q> (1)
-1

>  <i_epik_Tot_abs_Q> (1)
1

>  <i_m_Spin_multiplicity> (1)
1

>  <s_j_Task> (1)
Single Point

>  <s_j_QM_Method> (1)
DFT(b3lyp-d3)

>  <s_j_QM_Basis> (1)
6-31g**

>  <i_j_Number_of_canonical_orbitals> (1)
425

>  <i_j_Geometry_convergence_category> (1)
1

>  <r_j_Gas_Phase_Energy> (1)
-778.978635534735

>  <r_j_Final_Energy> (1)
-778.978635534735

>  <r_j_HOMO> (1)
-0.0059615717062711

>  <r_j_LUMO> (1)
0.133745362948977

>  <r_j_Polarizability> (1)
183.295163328153

>  <r_j_QM_Dipole_(debye)> (1)
35.0561598462428

>  <r_j_QM_Dipole_X_(debye)> (1)
-16.4596930832597

>  <r_j_QM_Dipole_Y_(debye)> (1)
29.0844459553539

>  <r_j_QM_Dipole_Z_(debye)> (1)
10.5880994630914

>  <r_j_Lowest_Frequency_(cm-1)> (1)
12.7958020600288

>  <r_j_Highest_Frequency_(cm-1)> (1)
3105.05496587994

>  <r_j_2nd_Lowest_Frequency_(cm-1)> (1)
18.2463877732003

>  <i_j_Num_Negative_Frequencies> (1)
0

>  <r_j_Zero_Point_Energy_(kcal/mol)> (1)
282.431386839726

>  <r_j_Entropy_(cal/mol/K)_298.15K_1.00E+00atm> (1)
152.985315263753

>  <r_j_Enthalpy_(kcal/mol)_298.15K_1.00E+00atm> (1)
14.0965274427969

>  <r_j_Free_Energy_(kcal/mol)_298.15K_1.00E+00atm> (1)
-31.5160443030912

>  <r_j_Internal_Energy_(kcal/mol)_298.15K_1.00E+00atm> (1)
13.5040418539696

>  <r_j_Heat_Capacity_(cal/mol/K)_298.15K_1.00E+00atm> (1)
79.7590744100658

>  <r_j_ln(Q)_298.15K_1.00E+00atm> (1)
53.1929297478305

>  <r_j_Total_Internal_Energy_(au)_298.15K_1.00E+00atm> (1)
-778.507032407067

>  <r_j_Total_Enthalpy_(au)_298.15K_1.00E+00atm> (1)
-778.506088221174

>  <r_j_Total_Free_Energy_(au)_298.15K_1.00E+00atm> (1)
-778.578776481554

$$$$
