991_Parathion
                    3D
 Schrodinger Suite 2021-3.
 32 32  0  0  1  0            999 V2000
   -1.8578    0.9319    0.6187 C   0  0  0  0  0  0
   -0.4362    1.4108    0.4038 C   0  0  0  0  0  0
    0.3099    0.3351   -0.2436 O   0  0  0  0  0  0
    1.8334    0.0164    0.1718 P   0  0  1  0  0  0
    2.6430   -1.3346   -0.9362 S   0  0  0  0  0  0
    2.5604    1.4459    0.3183 O   0  0  0  0  0  0
    3.0195    2.1467   -0.8698 C   0  0  0  0  0  0
    3.3561    3.5614   -0.4413 C   0  0  0  0  0  0
    1.7580   -0.2547    1.7938 O   0  0  0  0  0  0
    0.7265   -0.9390    2.4044 C   0  0  0  0  0  0
    0.1798   -2.1120    1.8756 C   0  0  0  0  0  0
   -0.8658   -2.7337    2.5488 C   0  0  0  0  0  0
   -1.3370   -2.1800    3.7379 C   0  0  0  0  0  0
   -0.7823   -1.0215    4.2812 C   0  0  0  0  0  0
    0.2584   -0.3977    3.6055 C   0  0  0  0  0  0
   -2.4524   -2.8319    4.4375 N   0  3  1  0  0  0
   -2.8537   -2.3146    5.4806 O   0  0  0  0  0  0
   -2.9222   -3.8543    3.9382 O   0  5  0  0  0  0
   -2.4601    1.7369    1.0518 H   0  0  0  0  0  0
   -1.8750    0.0778    1.2998 H   0  0  0  0  0  0
   -2.3096    0.6311   -0.3301 H   0  0  0  0  0  0
   -0.3936    2.2789   -0.2619 H   0  0  0  0  0  0
    0.0428    1.6814    1.3493 H   0  0  0  0  0  0
    3.8888    1.6175   -1.2718 H   0  0  0  0  0  0
    2.2274    2.1358   -1.6277 H   0  0  0  0  0  0
    3.7286    4.1328   -1.2967 H   0  0  0  0  0  0
    4.1254    3.5535    0.3355 H   0  0  0  0  0  0
    2.4699    4.0654   -0.0449 H   0  0  0  0  0  0
    0.5668   -2.5244    0.9513 H   0  0  0  0  0  0
   -1.3198   -3.6390    2.1664 H   0  0  0  0  0  0
   -1.1760   -0.6250    5.2085 H   0  0  0  0  0  0
    0.7147    0.5091    3.9860 H   0  0  0  0  0  0
  1  2  1  0  0  0
  1 19  1  0  0  0
  1 20  1  0  0  0
  1 21  1  0  0  0
  2  3  1  0  0  0
  2 22  1  0  0  0
  2 23  1  0  0  0
  3  4  1  0  0  0
  4  5  2  0  0  0
  4  6  1  0  0  0
  4  9  1  0  0  0
  6  7  1  0  0  0
  7  8  1  0  0  0
  7 24  1  0  0  0
  7 25  1  0  0  0
  8 26  1  0  0  0
  8 27  1  0  0  0
  8 28  1  0  0  0
  9 10  1  0  0  0
 10 15  1  0  0  0
 10 11  2  0  0  0
 11 12  1  0  0  0
 11 29  1  0  0  0
 12 13  2  0  0  0
 12 30  1  0  0  0
 13 14  1  0  0  0
 13 16  1  0  0  0
 14 15  2  0  0  0
 14 31  1  0  0  0
 15 32  1  0  0  0
 16 17  2  0  0  0
 16 18  1  0  0  0
M  END
>  <i_m_Spin_multiplicity> (1)
1

>  <s_j_Task> (1)
Single Point

>  <s_j_QM_Method> (1)
DFT(b3lyp-d3)

>  <s_j_QM_Basis> (1)
cc-pvtz(-f)

>  <i_j_Number_of_canonical_orbitals> (1)
542

>  <i_j_Geometry_convergence_category> (1)
4

>  <r_j_Gas_Phase_Energy> (1)
-1560.26802111888

>  <r_j_Final_Energy> (1)
-1560.26802111888

>  <r_j_HOMO> (1)
-0.261772391599898

>  <r_j_LUMO> (1)
-0.130449100519676

>  <r_j_Polarizability> (1)
184.937670169953

>  <r_j_QM_Dipole_(debye)> (1)
6.25669833005536

>  <r_j_QM_Dipole_X_(debye)> (1)
1.34490311886209

>  <r_j_QM_Dipole_Y_(debye)> (1)
5.84910260797444

>  <r_j_QM_Dipole_Z_(debye)> (1)
-1.7679107091647

>  <r_j_Lowest_Frequency_(cm-1)> (1)
38.3359625307826

>  <r_j_Highest_Frequency_(cm-1)> (1)
3186.28342246138

>  <r_j_2nd_Lowest_Frequency_(cm-1)> (1)
51.2924742813546

>  <i_j_Num_Negative_Frequencies> (1)
0

>  <r_j_Zero_Point_Energy_(kcal/mol)> (1)
152.644437758512

>  <r_j_Entropy_(cal/mol/K)_298.15K_1.00E+00atm> (1)
135.419275121839

>  <r_j_Enthalpy_(kcal/mol)_298.15K_1.00E+00atm> (1)
11.8889435638905

>  <r_j_Free_Energy_(kcal/mol)_298.15K_1.00E+00atm> (1)
-28.4863133136859

>  <r_j_Internal_Energy_(kcal/mol)_298.15K_1.00E+00atm> (1)
11.2964579750632

>  <r_j_Heat_Capacity_(cal/mol/K)_298.15K_1.00E+00atm> (1)
67.5104356816107

>  <r_j_ln(Q)_298.15K_1.00E+00atm> (1)
48.0793353473285

>  <r_j_Total_Internal_Energy_(au)_298.15K_1.00E+00atm> (1)
-1560.00676467006

>  <r_j_Total_Enthalpy_(au)_298.15K_1.00E+00atm> (1)
-1560.00582048417

>  <r_j_Total_Free_Energy_(au)_298.15K_1.00E+00atm> (1)
-1560.07016255199

>  <r_lp_tautomer_probability> (1)
1

>  <r_epik_Ionization_Penalty> (1)
  0.0000

>  <r_epik_Ionization_Penalty_Charging> (1)
  0.0000

>  <r_epik_Ionization_Penalty_Neutral> (1)
  0.0000

>  <r_epik_State_Penalty> (1)
  0.0000

>  <r_epik_Charging_Adjusted_Penalty> (1)
0

>  <i_epik_Tot_Q> (1)
0

>  <i_epik_Tot_abs_Q> (1)
2

>  <s_lp_Force_Field> (1)
S-OPLS

>  <r_lp_Energy> (1)
15.2687

>  <b_lp_Chiralities_Consistent> (1)
1

$$$$
