9989226_Aluminum Oxide
                    3D
 Schrodinger Suite 2021-3.
  5  0  0  0  1  0            999 V2000
    3.0832    1.0277    0.0000 O   0  6  0  0  0  0
   -3.0832    1.0277    0.0000 O   0  6  0  0  0  0
    1.0277   -1.0277    0.0000 O   0  6  0  0  0  0
    1.0277    1.0277    0.0000 Al  0  1  0  0  0  0
   -1.0277    1.0277    0.0000 Al  0  1  0  0  0  0
M  END
>  <i_m_Spin_multiplicity> (1)
1

>  <s_j_Task> (1)
Single Point

>  <s_j_QM_Method> (1)
DFT(b3lyp-d3)

>  <s_j_QM_Basis> (1)
cc-pvtz(-f)

>  <i_j_Number_of_canonical_orbitals> (1)
122

>  <r_j_Gas_Phase_Energy> (1)
-710.342440218145

>  <r_j_Final_Energy> (1)
-710.342440218145

>  <r_j_Polarizability> (1)
106.429177642373

>  <r_j_QM_Dipole_(debye)> (1)
4.08435044974664

>  <r_j_QM_Dipole_X_(debye)> (1)
0.178764656989837

>  <r_j_QM_Dipole_Y_(debye)> (1)
4.08043647098618

>  <r_j_QM_Dipole_Z_(debye)> (1)
-1.6518302033719e-06

>  <r_j_Zero_Point_Energy_(kcal/mol)> (1)
2.52714363631614

>  <r_j_Entropy_(cal/mol/K)_298.15K_1.00E+00atm> (1)
78.5498479698411

>  <r_j_Enthalpy_(kcal/mol)_298.15K_1.00E+00atm> (1)
4.18899660216409

>  <r_j_Free_Energy_(kcal/mol)_298.15K_1.00E+00atm> (1)
-19.230640570044

>  <r_j_Internal_Energy_(kcal/mol)_298.15K_1.00E+00atm> (1)
3.59651101333681

>  <r_j_Heat_Capacity_(cal/mol/K)_298.15K_1.00E+00atm> (1)
15.8159366400097

>  <r_j_ln(Q)_298.15K_1.00E+00atm> (1)
32.4575667875869

>  <r_j_Total_Internal_Energy_(au)_298.15K_1.00E+00atm> (1)
-710.332681553229

>  <r_j_Total_Enthalpy_(au)_298.15K_1.00E+00atm> (1)
-710.331737367337

>  <r_j_Total_Free_Energy_(au)_298.15K_1.00E+00atm> (1)
-710.369058935045

>  <r_j_HOMO> (1)
-0.28228177509389

>  <r_j_LUMO> (1)
-0.252245260475618

>  <r_j_Lowest_Frequency_(cm-1)> (1)
-251.981774792854

>  <r_j_Highest_Frequency_(cm-1)> (1)
745.467528693522

>  <r_j_2nd_Lowest_Frequency_(cm-1)> (1)
-189.101755114273

>  <i_j_Num_Negative_Frequencies> (1)
3

$$$$
